124
# extracted from Terachem optimization
Mn 0.3698984854 0.6326496329 0.0503379326
O 0.5637189107 2.6474433393 0.0850148608
C 1.9126872518 3.0472091442 0.5108287089
O 2.0261936447 4.3814406526 0.2039006544
C 1.2507683679 4.6426310710 -0.9716519478
C 0.0527582540 3.6826961012 -0.8340375866
H -0.8124590485 4.1339339244 -0.3463131695
H -0.2217118981 3.2120884593 -1.7736423317
H 1.8254437595 4.4054004824 -1.8763183407
H 1.9701573141 2.9144552957 1.5949321239
O 2.3861834993 0.7882214126 -0.2377393142
C 2.9313782528 2.1608410111 -0.2241785595
S 4.5366474307 2.2299786598 0.6083922944
C 5.3907793262 1.1487808474 -0.6242706514
C 4.5585939881 -0.0516933444 -0.9555717243
C 3.2475184735 -0.1960858705 -0.7727821369
H 6.3195227981 0.8478096044 -0.1367845814
H 2.6879526245 -1.0905624830 -1.0134363183
H 5.0823805443 -0.8911225969 -1.4064154240
H 3.0491477166 2.4501395759 -1.2716613913
C 5.7408827509 1.9801264706 -1.8736736322
O 4.8869519460 2.3852699244 -2.6420982109
C 7.2550381972 2.2148999645 -2.1365562528
N 7.8278989647 2.8019489969 -0.9450946592
N 7.7916154187 0.8763214488 -2.3147019881
O 7.4115304549 2.9758522818 -3.2995247040
H 8.8450783997 2.8337315487 -1.0350904225
H 7.5219407278 3.7709676719 -0.8593694835
H 7.9691890774 0.6927714126 -3.2985684767
H 8.6248533518 0.6898616727 -1.7630655398
H 6.5258988848 3.1956288523 -3.6488829507
C 0.9292223247 6.1538368112 -1.0049203811
O 1.3885710684 6.9056655019 -0.1835590547
C 0.0032999127 6.6861240469 -2.1636011539
N -0.2219524345 5.6331504460 -3.1261072957
N -1.2774700653 7.0794791906 -1.6242454495
O 0.6612704202 7.7680473411 -2.7503542623
H -1.0261165850 5.9038128020 -3.6944593143
H 0.5745525761 5.6093226706 -3.7641896316
H -1.8302163645 6.3257451257 -1.2271607179
H -1.2277802946 7.8726386937 -0.9907824239
H 1.0197017747 8.3530200121 -2.0564486844
O 0.4050753114 -1.4161766156 0.2837673701
C 1.1435551541 -1.8717551543 1.4585414845
O 1.0393256270 -3.2448793671 1.4639813681
C -0.2366158876 -3.6142149987 0.9136347469
C -0.5722747102 -2.4753358783 -0.0648659230
H -0.4053044253 -2.7083506348 -1.1086113966
H -1.5729547535 -2.0825528305 0.0847490259
H -0.9913936036 -3.6634044525 1.7112373332
H 2.1898549979 -1.5865323053 1.3186190954
O 0.3961057109 0.2004013088 2.4081381077
C 0.5630485143 -1.2016878316 2.7194484658
S 1.7137099752 -1.4686208256 4.1140403974
C 0.7046559379 -0.5336911927 5.3416332556
C 0.1370274643 0.7254813095 4.7649117048
C 0.0429009964 1.0288256658 3.4693207131
H 1.4005811729 -0.3126162873 6.1553566634
H -0.3209653324 1.9817663878 3.1042045371
H -0.2065912783 1.4747136965 5.4727491724
H -0.4225180097 -1.5996757556 2.9840504461
C -0.3630717980 -1.5119290007 5.8741542873
O -1.3887854616 -1.7521852828 5.2819947766
C -0.0743586054 -2.1826204733 7.3101290977
N 1.2822466610 -2.6113989872 7.3457538890
N -0.3206360668 -1.0850279948 8.2018488006
O -0.9865114346 -3.2209317441 7.4708043730
H 1.6338630951 -2.7212627819 8.2955042159
H 1.4086552485 -3.4849074442 6.8391875611
H -1.0987892358 -1.2496073419 8.8321516454
H 0.4862656318 -0.6724458377 8.6588975091
H -1.7501364499 -3.0669544219 6.8816319223
C -0.1195322909 -5.0454664911 0.3401910788
O 0.6879853569 -5.8193455696 0.7965752099
C -1.0872537533 -5.4856408022 -0.8021378156
N -2.2310469218 -4.5981635883 -0.8514695328
N -0.3749734051 -5.4159411216 -2.0964452711
O -1.4806009930 -6.8003602233 -0.5609017703
H -2.6170426197 -4.6200380922 -1.7965415437
H -2.9466792909 -4.9780802233 -0.2308787053
H 0.2295496128 -4.5997729452 -2.1748182082
H 0.2034627914 -6.2503297941 -2.1868069351
H -0.7496791007 -7.2657390207 -0.1089887704
O -1.7018019289 0.8392567314 -0.1354423305
C -2.2891806834 0.9351276631 -1.4796507898
O -3.6052796090 0.5318524937 -1.3680854395
C -3.7962177261 -0.1801642280 -0.1383687687
C -2.7916507004 0.4943485296 0.7957230959
H -3.1815587046 1.4107372318 1.2389322123
H -2.3930694551 -0.1632039230 1.5651595645
H -3.5587701346 -1.2443510900 -0.2667481140
H -2.2551676309 1.9796850604 -1.8056199145
O -0.1205732036 0.6072312673 -2.3652030451
C -1.4589029669 0.0545616993 -2.4209610340
S -2.2058717937 0.0105562664 -4.0833504462
C -0.8160783985 -0.9653369922 -4.8415292210
C 0.4988530204 -0.3246153233 -4.5278061500
C 0.7663694405 0.3516334097 -3.4114841349
H -1.0419724731 -0.9705590146 -5.9094375260
H 1.7185122822 0.8269700073 -3.2098639210
H 1.2990723037 -0.4209859131 -5.2555664607
H -1.4027541169 -0.9667224072 -2.0436858019
C -0.9338296502 -2.3913311141 -4.2692560286
O -0.3700616482 -2.6725531995 -3.2297256865
C -1.7669274619 -3.4863646720 -5.0667274222
N -2.8778473490 -2.8542908488 -5.7088990389
N -0.8017269110 -3.9552552139 -6.0368659062
O -2.1594767203 -4.4940743075 -4.1862362589
H -3.3112966937 -3.4921925220 -6.3756013588
H -3.5856976227 -2.5735008284 -5.0329950245
H -0.7323258468 -4.9681174897 -6.0698269669
H -0.9022307197 -3.5482877381 -6.9621990601
H -1.4101352873 -4.8430276059 -3.6361275380
C -5.2745502778 -0.0756018544 0.2596704667
O -6.1026016204 0.3758417364 -0.4936178547
C -5.6575923874 -0.5628868620 1.6805267462
N -4.7802973537 -1.6553030823 2.0766755397
N -5.3740302963 0.5920999713 2.5300723169
O -6.9890801336 -0.9973757419 1.6779245984
H -4.7621223003 -1.7185995257 3.0948711846
H -5.2245410191 -2.5180553028 1.7605693538
H -5.5613524582 0.3428821691 3.5037447187
H -6.0447184761 1.3280152386 2.3059028729
H -7.4824275161 -0.4779135564 1.0137882145
