106
# extracted from Terachem optimization
Mn 0.2625067768 0.1876177084 0.0466077255
O 0.5339700619 2.3646734392 0.0266614748
C 1.9023415938 2.7145485468 0.3998999541
S 2.1309436268 4.5020588817 -0.0034786319
C 0.6760811064 4.4240582388 -1.0433291116
C 0.0103700701 3.2820878014 -0.9148510224
H -0.8886746734 2.9760288134 -1.4199878899
H 1.9793233707 2.5517897346 1.4770745125
O 2.3838048583 0.4404867067 -0.2520153745
C 2.8839167171 1.8144868702 -0.3588389750
S 4.5429785835 1.9745334719 0.3746337842
C 5.3855298621 0.8079692124 -0.7818468812
C 4.5340299105 -0.4048804103 -1.0218505303
C 3.2411876245 -0.5574772237 -0.7489790260
H 6.2725664330 0.4696090431 -0.2364133102
H 2.7058274125 -1.4930382320 -0.8645090557
H 5.0560841365 -1.2691742228 -1.4210277598
H 2.9224765033 2.0485575726 -1.4253815271
C 5.9039610406 1.5242044583 -2.0579752095
O 4.8804320845 2.2329429762 -2.7529430708
C 6.5818991767 0.4910918143 -2.9823903298
O 7.1652403684 -0.4686119291 -2.4928522568
N 6.4992808483 0.7662017788 -4.3001423846
H 6.6902987416 2.2199043936 -1.7372857245
H 4.9249227967 3.1643894457 -2.4857420744
H 5.9589819345 1.5511698633 -4.6328625509
H 6.9711055922 0.1611509886 -4.9589404205
C 0.3764122631 5.6080410162 -1.9336686106
O 0.8407836802 6.8191354504 -1.3559255801
C -1.1119629409 5.6698493730 -2.3742782677
O -1.7870011230 4.6577377324 -2.5285543922
N -1.5488874241 6.9263490417 -2.5970943567
H 0.9663629170 5.5057829406 -2.8543117295
H 0.3365609465 6.9909279325 -0.5412948653
H -0.9197141678 7.7154279671 -2.5354233135
H -2.4765988940 7.0611371742 -2.9778702502
O 0.3728489438 -2.0229029655 0.3505058541
C 0.9622465278 -2.3074821639 1.6584118321
S 0.6787039658 -4.0948859945 2.0068855969
C -0.5454494104 -4.1303114886 0.7003641716
C -0.5433852333 -3.0282065917 -0.0405399255
H -1.1599638574 -2.7807146075 -0.8874442613
H 2.0307882059 -2.1029193942 1.5630141528
O 0.2250346078 -0.0612331354 2.2044595996
C 0.3391001071 -1.4143140602 2.7386486352
S 1.4129844663 -1.4413811475 4.2099509565
C 0.3471946374 -0.3531915937 5.2525380157
C -0.2559947139 0.7571090829 4.4410768139
C -0.2713254127 0.8896710292 3.1177214844
H 1.0377159497 0.1113301996 5.9648622664
H -0.6668593223 1.7518231542 2.5940127121
H -0.6914655731 1.5666456100 5.0198465368
H -0.6713357477 -1.7308192637 3.0090553851
C -0.6588368351 -1.1724702454 6.1040790125
O -1.5278986254 -1.9859489530 5.3224455063
C -1.4683765418 -0.2107837264 6.9987780916
O -0.9368559570 0.7974761611 7.4472382288
N -2.7354110567 -0.6008787949 7.2490674514
H -0.0638486027 -1.7984705738 6.7823533439
H -1.1559446966 -2.8807528499 5.2772242264
H -3.1158782854 -1.4267433177 6.8111733420
H -3.3043009932 -0.0475457387 7.8755778108
C -1.4528542620 -5.3314108624 0.6400532713
O -0.7371674858 -6.5347608951 0.8925585665
C -2.3170282118 -5.3919220752 -0.6427048755
O -2.7914861112 -4.3808576571 -1.1580575251
N -2.5273644079 -6.6464061086 -1.0869813168
H -2.1605602019 -5.2407183230 1.4747239631
H -0.0168817375 -6.6144352306 0.2430128589
H -2.1805426923 -7.4397638082 -0.5643594932
H -3.1601147014 -6.7960375941 -1.8617296791
O -2.0320352483 0.1412093231 -0.0512000116
C -2.6230773670 0.5685193575 -1.3115100865
S -4.3660313497 -0.0284136450 -1.3448324300
C -3.9591602091 -1.1687781737 -0.0244911152
C -2.7749912749 -0.9133372283 0.5213217703
H -2.3043786216 -1.4071876600 1.3532662190
H -2.6044476602 1.6596382348 -1.3180883653
O -0.4001896755 -0.0573116163 -2.0651781975
C -1.8076047126 -0.0190507890 -2.4698579069
S -2.0573927910 1.0124921851 -3.9461536778
C -1.0682360253 -0.0484588564 -5.0846400813
C 0.1726671730 -0.5340237019 -4.3921716328
C 0.4586852381 -0.4927177011 -3.0928178864
H -0.7491004856 0.6204620211 -5.8905146390
H 1.4132326810 -0.8009636403 -2.6887509992
H 0.9462874547 -0.9270653552 -5.0454375512
H -2.0860784971 -1.0520899096 -2.6907906067
C -1.9233046746 -1.1530342053 -5.7553462980
O -2.5337384989 -2.0351978866 -4.8183408376
C -1.0378891544 -1.9430815800 -6.7433123816
O -0.1275266070 -1.3769338660 -7.3366544666
N -1.3825765542 -3.2380606481 -6.9001763618
H -2.6907588149 -0.6487714474 -6.3575777731
H -3.4476192271 -1.7447927828 -4.6713892544
H -2.1015824165 -3.6522375456 -6.3256527662
H -0.8727098729 -3.8046177398 -7.5645124515
C -4.9388046132 -2.2773297911 0.2595174294
O -6.2819599474 -1.8333046248 0.1080918578
C -4.6921752022 -3.0066291570 1.6035363367
O -3.5654370400 -3.1816145031 2.0649789548
N -5.8252434688 -3.4629349637 2.1738071536
H -4.8026283071 -3.0378980933 -0.5204595753
H -6.4434287361 -1.1073141076 0.7357374308
H -6.7167889758 -3.3508332390 1.7097896463
H -5.7643677376 -4.0281267758 3.0102528196
