130
# extracted from Terachem optimization
Mn 0.0801469948 -0.0929187113 -0.1157484626
O 0.3501196688 1.9539523852 -0.5031354288
C 1.7444496681 2.3737024958 -0.4979253889
N 1.9479839511 2.8498783788 0.8576427440
C 0.6903057693 3.4197906707 1.2135174185
C -0.2537781422 2.8816553226 0.4207065608
H -1.3254396182 2.9374201609 0.3785672583
H 2.7395982211 3.4816093512 0.9330133840
H 1.8355989442 3.1770404791 -1.2475522627
O 2.1814163800 0.0057941562 -0.1912499353
C 2.6429459701 1.2007503331 -0.8716410971
O 3.9289008717 1.4516269462 -0.4413534072
C 4.5196890131 0.1607782173 -0.0812712175
C 3.3109742283 -0.5435627767 0.5486445480
H 3.1950380802 -0.2910431878 1.6032800823
H 3.3114259045 -1.6238523839 0.4089546077
H 4.8072483854 -0.3531199087 -1.0084335678
H 2.5913670459 0.9914885552 -1.9489476330
C 5.7134919713 0.3495734676 0.7990293094
C 6.9656894318 -0.1489677293 0.4161640383
C 8.0871244558 0.0258401079 1.2154160830
C 7.9959082171 0.7305039706 2.4328587487
N 9.1128551197 0.9645199372 3.1996665670
C 6.7345805005 1.2362416293 2.8188338946
C 5.6211732886 1.0453677935 2.0151646641
H 7.0697628662 -0.6829925344 -0.5256432914
H 9.0481490689 -0.3663963834 0.8937385152
H 9.9434204952 0.4166335417 3.0266712621
H 8.9919257564 1.2553902896 4.1589064280
H 6.6446129594 1.7921725340 3.7487007951
H 4.6671585700 1.4650599084 2.3260456325
C 0.5685097454 4.3716674636 2.3107452903
C -0.5714906054 5.1894898119 2.4475095931
C -0.6908631875 6.0841870294 3.4960194992
C 0.3325744017 6.2066194270 4.4634758650
N 0.1963531365 7.0629136506 5.5284106928
C 1.4770116089 5.3934546011 4.3270359421
C 1.5886627220 4.5004685899 3.2723730075
H -1.3616605419 5.1428032045 1.7029361282
H -1.5749697907 6.7114717924 3.5729751479
H -0.4976573160 7.7952860882 5.4724862523
H 1.0233406910 7.3133721724 6.0522441434
H 2.2771777667 5.4678498683 5.0584975230
H 2.4784928178 3.8800136905 3.2064196347
O -0.2752752075 -2.1409796069 0.1190530176
C -0.4073410891 -2.5501751144 1.5098084852
N 0.9113613665 -3.0648309678 1.8372106546
C 1.4074283422 -3.5991215156 0.6146026025
C 0.7273498122 -3.0332510997 -0.3987903001
H 0.8539660114 -3.0242756470 -1.4667160027
H 0.8977848561 -3.7158834617 2.6164919317
H -1.1895440108 -3.3255649228 1.5477834344
O -0.0401341279 -0.1844439606 1.9434972168
C -0.8221990525 -1.3466391381 2.3528879440
O -0.5268217238 -1.5837738585 3.6766345852
C -0.1909161477 -0.2916503732 4.2792834901
C 0.6036283476 0.3549740995 3.1375884704
H 1.6486666421 0.0430884143 3.1426282081
H 0.5229213649 1.4402621484 3.1026635267
H -1.1243120488 0.2642007682 4.4394518555
H -1.8778626254 -1.0933126393 2.1842759752
C 0.5305500620 -0.4778290254 5.5752969800
C 0.0219656827 0.0791134561 6.7563026552
C 0.6714543699 -0.0890972806 7.9711770581
C 1.8590713088 -0.8449536825 8.0498476914
N 2.4740209628 -1.0693812942 9.2581027062
C 2.3714175869 -1.4095024680 6.8604242982
C 1.7164994232 -1.2257067956 5.6524293134
H -0.9001247307 0.6552529577 6.7273597356
H 0.2536692488 0.3481170052 8.8740942384
H 2.2227732760 -0.4901474277 10.0461571208
H 3.4253195871 -1.4073613264 9.2672921303
H 3.2798498734 -2.0052797835 6.9013787837
H 2.1198989617 -1.6919595285 4.7564605146
C 2.5095666165 -4.5516526803 0.5843314649
C 2.7295048411 -5.3708524528 -0.5414209290
C 3.7797249780 -6.2698528256 -0.5819159459
C 4.6649788282 -6.3961674660 0.5130604580
N 5.7305594569 -7.2589492397 0.4591201444
C 4.4446739214 -5.5818691277 1.6444528105
C 3.3889522976 -4.6841100069 1.6760658446
H 2.0441815317 -5.3235142592 -1.3834404053
H 3.9191346264 -6.8987380106 -1.4570850007
H 5.7288613201 -7.9854556608 -0.2431060889
H 6.1926191600 -7.5120076466 1.3212874289
H 5.1129560072 -5.6602674814 2.4977357935
H 3.2570853393 -4.0627159828 2.5578967930
O -2.0830980608 -0.0793765940 -0.3082788140
C -2.5287133910 -0.2913726020 -1.6723114120
N -2.8321905714 1.0531637488 -2.1251919773
C -3.3470812271 1.6964126717 -0.9632853726
C -2.8956986973 1.0252704176 0.1147809409
H -2.9207656745 1.2101222107 1.1748759979
H -3.4481544841 1.0696022893 -2.9322437662
H -3.4280581939 -0.9299089129 -1.6217533884
O -0.1135626354 -0.5120030245 -2.1536121285
C -1.4525268435 -1.0136962081 -2.4813179882
O -1.6613127624 -0.7674171122 -3.8232725875
C -0.3508890040 -0.7453979943 -4.4701830301
C 0.4682207409 -0.0232319610 -3.3954669675
H 0.3523871482 1.0612556050 -3.4535588694
H 1.5215236123 -0.3064088692 -3.4051283099
H 0.0018835255 -1.7815955281 -4.5660364112
H -1.4435372507 -2.0847067648 -2.2385891634
C -0.4120305808 -0.0920708535 -5.8118160638
C -0.0214836464 -0.7954402526 -6.9596267354
C -0.0650502813 -0.2077997240 -8.2158762479
C -0.5224948946 1.1170455665 -8.3707605726
N -0.6252772412 1.6885416983 -9.6154819381
C -0.9222158173 1.8252905558 -7.2151000915
C -0.8647579131 1.2289477069 -5.9654094654
H 0.3234907325 -1.8233245582 -6.8720371303
H 0.2398915998 -0.7753963593 -9.0908317777
H -0.1375396416 1.2598356178 -10.3889764244
H -0.7283691104 2.6906273259 -9.6843935226
H -1.2880153194 2.8439866816 -7.3145060980
H -1.1968889584 1.7928274420 -5.0965174149
C -4.1652947162 2.8984078619 -1.0471171332
C -4.9656666922 3.3117777716 0.0369452636
C -5.7370768166 4.4580097811 -0.0354739246
C -5.7476521472 5.2494265862 -1.2066181523
N -6.4801206480 6.4088397314 -1.2657692053
C -4.9510963255 4.8360871419 -2.2956887080
C -4.1816091119 3.6863942719 -2.2137877965
H -5.0101290457 2.7050603943 0.9376915737
H -6.3555651717 4.7472205962 0.8101280914
H -7.2164806282 6.5488613417 -0.5880672204
H -6.6653520941 6.8163019077 -2.1717492956
H -4.9401132087 5.4296834008 -3.2059092950
H -3.5650642924 3.4092200422 -3.0646184743
