130
# extracted from Terachem optimization
Mn 0.1959001248 -0.0555396551 -0.2226162734
O 0.4740375498 2.0669638152 -0.2121979131
C 1.8691785970 2.4843327554 -0.2355035466
N 2.1416770853 2.7814350063 1.1588313946
C 0.9098454172 3.3120828635 1.6428793111
C -0.0797623847 2.8659379623 0.8396403575
H -1.1517869102 2.9422134017 0.8505023615
H 2.9452554999 3.3911475240 1.2784134256
H 1.9261076759 3.3790718776 -0.8775743749
O 2.2938999150 0.0809110754 -0.3024279355
C 2.7242477719 1.3704775418 -0.8301558075
O 4.0415168649 1.5429704584 -0.4646238585
C 4.6249035483 0.2019868695 -0.3798395378
C 3.4700627248 -0.5565126942 0.2839519251
H 3.4448624640 -0.4058830824 1.3647702654
H 3.4366711369 -1.6169852348 0.0384257483
H 4.7678628346 -0.1721017692 -1.4025584424
H 2.5905515871 1.3180117390 -1.9203231893
C 5.9317862662 0.2221073793 0.3458529360
C 7.0886500918 -0.2694619573 -0.2789908460
C 8.3140221512 -0.2653375456 0.3672671750
C 8.4283261294 0.2526618005 1.6783449942
N 9.6255150151 0.2449259954 2.3299693399
C 7.2629772296 0.7574009084 2.3072313483
C 6.0448882687 0.7366551693 1.6496893266
H 7.0310525917 -0.6591836793 -1.2923996919
H 9.1962587377 -0.6499111006 -0.1364026040
H 10.4751592265 0.0118899575 1.8359911065
H 9.7412767175 0.7424415353 3.2009680601
H 7.3350489986 1.1671171252 3.3110734134
H 5.1696574585 1.1488356995 2.1460569818
C 0.8416174238 4.1536326790 2.8250499276
C -0.3111784590 4.9231107973 3.1028659366
C -0.3801864886 5.7404907803 4.2121635984
C 0.7141003909 5.8339176407 5.1102316219
N 0.6469970333 6.6309775242 6.2086206980
C 1.8691711925 5.0604259389 4.8401785375
C 1.9266875643 4.2470370076 3.7230095011
H -1.1513382650 4.9029460459 2.4142581606
H -1.2709751096 6.3353745430 4.3930776534
H -0.1257221054 7.2680452929 6.3387332562
H 1.4638279550 6.7967668239 6.7789432491
H 2.7167895943 5.1126385680 5.5175547741
H 2.8251166991 3.6593744823 3.5550180209
O -0.1271561851 -2.1004947512 -0.0607103488
C -0.2868366036 -2.6098565845 1.2971332104
N 1.0258927178 -3.1514883389 1.6019771338
C 1.5363119776 -3.6055633084 0.3521263935
C 0.8725803222 -2.9605650389 -0.6298198779
H 0.9911185934 -2.8849915680 -1.6968426507
H 0.9937915801 -3.8597759549 2.3293570280
H -1.0682291467 -3.3856178423 1.2588090555
O 0.0501768632 -0.2788973116 2.0057077142
C -0.7353655806 -1.4811654423 2.2259282865
O -0.5331936716 -1.8778061998 3.5341501111
C -0.2320454545 -0.6716204071 4.2956597258
C 0.6460667821 0.0823973042 3.2861878719
H 1.6812036653 -0.2659655818 3.3097201859
H 0.6016323245 1.1661165839 3.3927149165
H -1.1676632772 -0.1181362139 4.4531787601
H -1.7835647020 -1.2195872075 2.0200917474
C 0.3902366749 -1.0157943672 5.6136260297
C -0.1814940107 -0.5501057297 6.8080009264
C 0.3682315366 -0.8645401712 8.0402767240
C 1.5209316462 -1.6814487746 8.1204277746
N 2.0749415848 -1.9891642525 9.3257073688
C 2.0970905949 -2.1560976253 6.9151315795
C 1.5380946681 -1.8245790405 5.6933361181
H -1.0776411184 0.0644578599 6.7735581391
H -0.0924025074 -0.4964395759 8.9525334319
H 1.6006152409 -1.7551035502 10.1862941986
H 2.8160884135 -2.6715080567 9.3955647121
H 2.9781341040 -2.7904241536 6.9594979319
H 1.9837750473 -2.2188929109 4.7838630511
C 2.6176097477 -4.5726746969 0.2707563153
C 2.8670132489 -5.2857692451 -0.9231783992
C 3.8828829772 -6.2165149787 -1.0051041505
C 4.7072805632 -6.4874967334 0.1161845189
N 5.7171692998 -7.3947145333 0.0354433069
C 4.4632534469 -5.7728691142 1.3138262265
C 3.4408157785 -4.8439054472 1.3837836153
H 2.2265109806 -5.1335565600 -1.7875915594
H 4.0418453680 -6.7648939427 -1.9292866408
H 5.8044977225 -7.9960731023 -0.7713128625
H 6.2079650070 -7.6928599831 0.8661080920
H 5.0857120179 -5.9602507249 2.1841619669
H 3.2905318168 -4.3036931613 2.3145657302
O -1.9909800097 -0.0012426361 -0.4320518026
C -2.4832774331 -0.0513685419 -1.8007972488
N -2.8609769873 1.3273970745 -2.0597771166
C -3.3223286923 1.8079220857 -0.8031311165
C -2.7836484509 1.0283859923 0.1592849954
H -2.7653250888 1.0753285742 1.2346440890
H -3.5251895922 1.4142526083 -2.8231553393
H -3.3532363816 -0.7299546431 -1.7996329581
O -0.0930784033 -0.1002230385 -2.4807559332
C -1.4234369734 -0.6213202701 -2.7522168154
O -1.7656693262 -0.2426450257 -4.0397672112
C -0.5307803701 -0.0081119191 -4.7773015220
C 0.3380632988 0.6106992423 -3.6740281866
H 0.1462756860 1.6787080390 -3.5458624492
H 1.4031559511 0.4219778286 -3.8205367374
H -0.1125736941 -0.9800190960 -5.0707210393
H -1.3529754345 -1.7114363467 -2.6308776654
C -0.7802495547 0.8332577917 -5.9915837688
C -0.4301664745 0.3526249740 -7.2639073939
C -0.6457771448 1.1089986540 -8.4035413726
C -1.2408874633 2.3907260174 -8.3070039370
N -1.4573428870 3.1409420313 -9.4180771102
C -1.6019827408 2.8748530655 -7.0227550495
C -1.3716018297 2.1066931134 -5.8957294948
H 0.0151003134 -0.6338162180 -7.3654303755
H -0.3680481632 0.7182565789 -9.3781151857
H -1.2394069196 2.7903766670 -10.3399977065
H -1.9212543358 4.0363234739 -9.3682982244
H -2.0636709259 3.8541748040 -6.9328306256
H -1.6690145126 2.4929788845 -4.9242272502
C -4.1931958008 2.9653196737 -0.6867212325
C -4.9675264485 3.1786984163 0.4762692248
C -5.8135312311 4.2635212131 0.5866013042
C -5.9297938946 5.1982694211 -0.4746298302
N -6.7571070643 6.2696319781 -0.3704516913
C -5.1496300142 4.9921300494 -1.6397774521
C -4.3094717343 3.8990693284 -1.7387550415
H -4.9330584466 2.4561013561 1.2868592472
H -6.4159155919 4.3938976805 1.4811078963
H -7.3913692016 6.3633786249 0.4100183064
H -6.9240697705 6.8763893123 -1.1604854497
H -5.2181398713 5.7007694956 -2.4601181444
H -3.7150115513 3.7761414080 -2.6395748190
