124
# extracted from Terachem optimization
Mn 0.7125648283 0.4709069089 0.4705729094
O 0.9151796476 2.6600343501 0.4851729070
C 2.2225363789 3.1504428754 0.9291795892
O 2.3139698196 4.4604566426 0.5114141727
C 1.5270778365 4.6051475299 -0.6771909997
C 0.3426059717 3.6665124039 -0.4140043193
H -0.4759360242 4.1517133530 0.1216363368
H -0.0134596121 3.1841713501 -1.3191494874
H 2.0891665149 4.2564641987 -1.5556850527
H 2.2553101782 3.1129870252 2.0227060425
O 2.8845661687 0.8729678355 0.6557340227
C 3.2966249492 2.2377450981 0.3230184943
S 4.9237477645 2.6904355813 0.9869407743
C 5.8342892454 1.3074177199 0.1517249445
C 5.1428534681 0.0036554391 0.3875068351
C 3.8413043475 -0.1528617722 0.6135384651
H 6.8224948160 1.3200012693 0.6124744265
H 3.3679171915 -1.1035534159 0.8210677559
H 5.7558335776 -0.8929654913 0.3711984136
H 3.3141772909 2.3040873440 -0.7676939687
C 5.9690076022 1.6687512851 -1.3312671408
O 5.0369683300 1.5532188533 -2.1143886692
C 7.3779911693 2.0991184861 -1.8133784369
N 7.9365099287 3.0625062712 -0.8998366204
N 8.1116039655 0.8404220013 -1.7104135207
O 7.2910544308 2.5551014122 -3.1367800979
H 8.9112825888 3.2330651384 -1.1508274205
H 7.4536850160 3.9541137998 -1.0055429270
H 8.3461340801 0.5054601795 -2.6402095115
H 8.9527002704 0.9212007989 -1.1456717529
H 6.4084013462 2.3084750437 -3.4736106627
C 1.2332598810 6.1003347304 -0.8990862406
O 1.8181602239 6.9442642126 -0.2581778062
C 0.1856341686 6.5018907585 -1.9724909175
N -0.0215184197 5.4162722095 -2.9067943560
N -1.0994447857 6.7707885293 -1.3384550862
O 0.6482265631 7.6558058979 -2.6110787607
H -0.8719233364 5.6331885609 -3.4288809857
H 0.7394501387 5.4294827425 -3.5869534389
H -1.4824956647 5.9721344678 -0.8394098545
H -1.0385610315 7.5683292760 -0.7103451455
H 1.1454059082 8.1845259320 -1.9580453535
O 0.8839061523 -1.6188986548 1.1155810206
C 0.5858958082 -2.0223480142 2.5004744360
O 0.0907746406 -3.3197530830 2.4386372307
C -0.3382386176 -3.5672824385 1.0904457520
C 0.7457431553 -2.8371013898 0.3143353982
H 1.6981680310 -3.3753217326 0.3450207445
H 0.5002787927 -2.5599856955 -0.7044404097
H -1.3156938972 -3.1050180169 0.9046116658
H 1.5161793068 -2.0068280489 3.0765730211
O 0.0406300237 0.2973644516 2.6658829338
C -0.4400072758 -1.0292630769 3.0544349084
S -0.6031594320 -1.2921209667 4.8448627642
C -1.6771507608 0.1965050198 5.1483659122
C -1.0187131285 1.4059283103 4.5665699747
C -0.2767357952 1.4086412258 3.4616472063
H -1.7695397961 0.2465519974 6.2340862922
H 0.1952347187 2.2934060121 3.0537649611
H -1.1623207374 2.3582519724 5.0686141912
H -1.4072814495 -1.1772831311 2.5680681338
C -3.0310439202 -0.1181268152 4.5000180632
O -3.2026832532 0.1614487912 3.3233865662
C -4.1681523798 -0.7360070749 5.3600949427
N -3.6239782895 -1.6333773709 6.3424274651
N -4.7166065158 0.4569094596 6.0034516654
O -5.1068601866 -1.3779970601 4.5365530336
H -4.3726211464 -1.9243938296 6.9721756625
H -3.2757280397 -2.4786100875 5.8908281734
H -5.7180750927 0.5195774415 5.8420513132
H -4.5272154806 0.4703357299 7.0020128741
H -5.3662826753 -0.8226658900 3.7639343384
C -0.4658830299 -5.0709251062 0.8220811203
O -0.1872726646 -5.8958090327 1.6627982868
C -0.9521949372 -5.5057624464 -0.5975783863
N -1.8187374193 -4.4900993940 -1.1656495177
N 0.2049437292 -5.6555544119 -1.4904067944
O -1.5985195768 -6.7345040314 -0.4689887772
H -1.8393551347 -4.6203941068 -2.1787884226
H -2.7639048943 -4.6781197857 -0.8308596729
H 0.7752343955 -4.8159806861 -1.5582603510
H 0.7707611981 -6.4497734871 -1.1983720512
H -1.2428057744 -7.1775523336 0.3264487764
O -1.3021253291 0.7831496945 -0.3184460047
C -1.5780948169 0.6183961302 -1.7472847313
O -2.8335281973 0.0251495085 -1.8482220668
C -3.2139132874 -0.4685043944 -0.5533555220
C -2.5885639883 0.5885514976 0.3484064643
H -3.1417086826 1.5321774387 0.2988857434
H -2.4089692471 0.3133955724 1.3830291904
H -2.7592045210 -1.4491877348 -0.3705211003
H -1.5961350993 1.6036439055 -2.2272840060
O 0.7903071723 0.2789884880 -1.8258711244
C -0.4729827524 -0.2688359234 -2.3249895909
S -0.6200477190 -0.3238930365 -4.1333707429
C 0.9099595327 -1.3463763515 -4.3938928979
C 2.0538725801 -0.7183944232 -3.6651067757
C 1.9685618758 -0.0097478070 -2.5420355012
H 1.0597731508 -1.3480067857 -5.4743282997
H 2.8229192822 0.4582841401 -2.0709836410
H 3.0482969492 -0.8413007638 -4.0846918269
H -0.5670798804 -1.2797292358 -1.9230515313
C 0.5798128484 -2.7618416537 -3.9101554092
O 0.7864008228 -3.0729891862 -2.7457315027
C 0.0629551391 -3.7994467067 -4.9401831290
N -0.7599579960 -3.1627165904 -5.9306865669
N 1.3264228063 -4.2028210978 -5.5524742258
O -0.6292010818 -4.8410032722 -4.2942171916
H -0.9819424811 -3.8421210200 -6.6595704014
H -1.6486522279 -2.8884106564 -5.5149141262
H 1.6090362032 -5.1240151495 -5.2311812783
H 1.2898450968 -4.1911788575 -6.5683151518
H -0.1561902255 -5.1676389700 -3.4946473217
C -4.7386676630 -0.6294578927 -0.4727798661
O -5.4651502108 -0.2498621041 -1.3638058936
C -5.3351165958 -1.2861756066 0.8116814664
N -4.3861843758 -2.2168350584 1.3949928414
N -5.6150193933 -0.2430194399 1.8074006378
O -6.5261494857 -1.9192773660 0.4555066041
H -4.6485900932 -2.3653017752 2.3710667544
H -4.5143296260 -3.1115471960 0.9217886847
H -4.7994275161 0.3232631468 2.0305866583
H -6.3832793254 0.3445475701 1.4898194341
H -6.8847383688 -1.4624012069 -0.3305908000
