121
# extracted from Terachem optimization
Mn -0.1036487828 -0.0005920061 0.0880599701
O -0.0285168923 2.3305898690 0.0423651590
C 1.2388383606 3.0147049651 -0.1346054152
S 1.3467797606 4.5067552237 0.9078073251
C -0.1061706995 5.3871717112 0.2477335227
C -1.1508457120 4.4625137357 -0.2832833055
C -1.1232062824 3.1230468826 -0.2991530353
H -0.5228665278 5.9087131005 1.1197264373
H -1.9802886949 2.5184344292 -0.5732724015
H -2.0835478492 4.9143979622 -0.6087111694
H 1.3087349106 3.2820563244 -1.1919248766
O 1.9585820259 0.6916241391 0.2702642887
C 2.4121452336 2.0874895171 0.2272216501
O 3.3535324939 2.2587475227 -0.7548722607
C 4.5978416964 1.5501311936 -0.5141883001
C 4.3082607050 0.2424787909 0.1660280701
C 3.0812645392 -0.1442733896 0.4943097865
H 5.2469131847 2.1701560447 0.1157766514
H 2.8134579698 -1.0639217945 0.9960977590
H 5.1452603947 -0.3961014154 0.4239300884
H 2.8113965720 2.2767668730 1.2326557678
C 5.2850573885 1.3978403813 -1.8984732105
O 4.4363426522 0.5774724030 -2.6796750632
C 5.5434100791 2.7624693615 -2.5581118559
C 6.6576297678 0.7176944022 -1.6435791488
O 7.2274563920 0.7122377149 -0.5970349591
Cl 7.3513164280 -0.0470435403 -3.1055164356
H 4.8484554685 0.4691110987 -3.5552958684
H 6.1836838869 3.3937097946 -1.9338053118
H 6.0442792568 2.6246298911 -3.5210252899
H 4.5923015666 3.2721207727 -2.7290288890
C 0.3541498194 6.6306193979 -0.7230744770
O 1.2507483760 7.3976817259 0.0067283401
C 1.0311880874 6.1707286687 -2.0063079346
C -0.9459805803 7.4773956706 -0.9080423737
O -1.2714170177 8.2687617510 -0.0751235412
Cl -1.9020776354 7.1872988605 -2.3669920032
H 0.7638104394 8.0734690608 0.5220626441
H 0.4154813764 5.4593662551 -2.5606688834
H 1.2229316116 7.0373881622 -2.6447875423
H 1.9986616236 5.7240293135 -1.7613408557
O 0.2092289368 -2.0774916766 0.8261127752
C 0.0274933823 -2.4244147719 2.2242469139
S 1.6011839522 -2.9070780585 3.0095374132
C 2.0169917370 -4.3120176355 1.9017824293
C 1.4230773708 -4.1607164173 0.5369083524
C 0.6842145085 -3.1557893920 0.0568028198
H 3.1086323532 -4.2495453311 1.8022522302
H 0.3831644306 -3.0841816691 -0.9818532448
H 1.6867114171 -4.9217097807 -0.1916240254
H -0.6773273822 -3.2585090065 2.2457854599
O -0.5413873758 -0.0245545417 2.2102280970
C -0.5884111340 -1.2506419698 3.0100271325
O -1.8966370012 -1.5545977727 3.3131833562
C -2.4569883926 -0.6209656306 4.2759452095
C -2.0441403704 0.7776424784 3.8988416584
C -1.1705346675 1.0271759492 2.9290154115
H -2.0678123216 -0.8675219862 5.2719521638
H -0.8076368960 1.9961676367 2.6145324017
H -2.4397367271 1.6082938516 4.4726330075
H -0.0089577194 -1.0206718223 3.9132799529
C -3.9875805458 -0.8571857483 4.3152483610
O -4.5040318468 -0.4338800821 3.0638541434
C -4.3253319786 -2.3259134888 4.6128343815
C -4.5442244376 0.0250102488 5.4662761569
O -3.8965765670 0.4694303764 6.3608601604
Cl -6.3126671766 0.3036947119 5.3381072315
H -5.4729995458 -0.5254366232 3.1070765892
H -3.8975625295 -2.6512246850 5.5665042932
H -5.4098688759 -2.4576580243 4.6687387325
H -3.9374566291 -2.9573776777 3.8100830586
C 1.7913797319 -5.7223371677 2.6677402172
O 2.4781673670 -5.6336291251 3.8782261969
C 0.3268902627 -6.0219303123 2.9611000038
C 2.5243996743 -6.7848653079 1.7932977476
O 3.6960850429 -6.9749177516 1.9206434834
Cl 1.5542622030 -7.6590862392 0.5918325024
H 3.3920169103 -5.9615113136 3.7576709160
H -0.2918590354 -5.9725641712 2.0621163830
H 0.2351223862 -7.0221925390 3.3926594964
H -0.0364586791 -5.3106894262 3.7081628410
O -2.1825447879 -0.2715560033 -0.6518665659
C -2.4753681374 -0.4194699071 -2.0648629442
S -3.3951503646 1.0170756780 -2.7110973434
C -4.8784598435 0.8347121417 -1.6403077790
C -4.5288524881 0.2577899749 -0.3025212211
C -3.3446636419 -0.1766970491 0.1367657207
H -5.2147798697 1.8681184473 -1.4896083575
H -3.1707232765 -0.5001505860 1.1551569154
H -5.3186656441 0.2438982684 0.4421224575
H -3.0848461086 -1.3201830291 -2.1619947310
O -0.0229909969 -0.3141799998 -2.0272190328
C -1.1790236758 -0.6298237455 -2.8681464842
O -1.1284979332 -1.9444520112 -3.2664156407
C -0.0447879438 -2.2062546404 -4.1967650620
C 1.1852574285 -1.4667982527 -3.7447748906
C 1.1794424775 -0.6038494918 -2.7350104692
H -0.3444347027 -1.8567231231 -5.1929501674
H 2.0220420351 -0.0203099084 -2.3865459034
H 2.1064030204 -1.6059550834 -4.2987405274
H -1.1035844126 0.0592020727 -3.7194749207
C 0.1137336538 -3.7450267474 -4.2852016761
O 0.5593601815 -4.1907904949 -3.0140845279
C -1.2009087090 -4.4213113053 -4.7037603335
C 1.1829051504 -4.0199122467 -5.3766636112
O 1.5142077196 -3.2456917550 -6.2196604202
Cl 1.8824236508 -5.6682529184 -5.2751963623
H 0.6779869781 -5.1557271706 -3.0701699673
H -1.5515119346 -4.0478642704 -5.6710324011
H -1.0582189055 -5.5022910746 -4.7923716071
H -1.9631123605 -4.2292134556 -3.9451992748
C -6.0955215371 0.1550241507 -2.4544190971
O -6.2686776902 0.9030120587 -3.6222349961
C -5.8433531908 -1.2951079859 -2.8509381635
C -7.3600706630 0.3768491761 -1.5707387351
O -7.9979090873 1.3820328176 -1.6562379550
Cl -7.7852027027 -0.9089733461 -0.4198729927
H -6.9240185876 1.6102882269 -3.4589446161
H -5.5891016757 -1.9214920310 -1.9931693486
H -6.7393423953 -1.7031954294 -3.3261859309
H -5.0423225711 -1.3242122479 -3.5949106254
