109
# extracted from Terachem optimization
Mn 0.8320292795 0.5654056586 0.1534895079
O 1.0274033681 2.8078286703 0.1235103679
C 2.3418585730 3.3047901578 -0.2913857628
N 2.0409491306 4.0153083522 -1.5142327560
C 0.7013210762 4.4318916960 -1.4028896512
C 0.0914557902 3.7193239904 -0.4461266623
H -0.9238592413 3.6662188825 -0.0977154189
H 2.6936323481 4.7239549747 -1.8396085970
H 2.7075070420 3.9461475893 0.5279814667
O 2.8243678324 1.0190891926 0.3766875076
C 3.2827289332 2.1135952441 -0.5223658588
S 4.9763607405 2.6392544871 -0.1996930557
C 5.7472245592 0.9758915634 -0.4828106898
C 5.0265962480 -0.0418188413 0.3442689258
C 3.7486143600 0.0125216430 0.7130240124
H 6.7735805131 1.1039987621 -0.1322483698
H 3.2805428317 -0.6952498834 1.3834162844
H 5.5988739404 -0.8936701044 0.7021947379
H 3.1785731854 1.7352242326 -1.5399245608
C 5.7369414283 0.6701530052 -1.9977476449
O 4.7323485054 0.2397168066 -2.5337027640
C 7.0500931061 0.9018851351 -2.7570011600
O 7.5239746797 2.1575301250 -2.3151826657
N 7.8928234401 -0.2261737474 -2.4372108770
H 6.8089180239 0.8831263549 -3.8262097394
H 8.2820974788 2.4306282155 -2.8597694342
H 8.4344269550 -0.5706913430 -3.2239283670
H 8.5154563766 -0.0246201074 -1.6592978093
C 0.2064870388 5.4639940249 -2.3598078453
O 0.9903937587 5.8862430388 -3.1856994523
C -1.2283421842 5.9989369441 -2.2505116494
O -2.0698615007 4.8675940420 -1.9413248539
N -1.2448592112 7.0667179235 -1.3054550366
H -1.4690511526 6.4095412390 -3.2361122215
H -2.9883750733 5.1865204309 -1.9548704056
H -1.9492515402 7.7768689071 -1.4721509593
H -1.2437732794 6.7699361990 -0.3355013913
O 0.7536097142 -2.0899817682 0.6786021785
C 0.8554320960 -2.3231082843 2.1101966851
N 0.1049189458 -3.5517095060 2.2738534237
C -0.3787883153 -3.9860923652 1.0941247803
C 0.0148967437 -3.0851927086 0.1187506011
H -0.1514749982 -3.0510448347 -0.9508096697
H 0.0088335678 -4.0823553657 3.1387100547
H 1.9172338365 -2.4593499278 2.3509124701
O 0.8154751013 0.0847569161 2.3153288373
C 0.2621952234 -1.1327690939 2.8865167368
S 0.7100316897 -1.3832566387 4.6328066268
C -0.0823396887 0.1715778568 5.2552989288
C 0.3060286380 1.3176202363 4.3755343090
C 0.7039386554 1.2539011329 3.1073225264
H 0.3416366532 0.2891647062 6.2553270921
H 1.0190055282 2.1113531492 2.5267748804
H 0.2743366688 2.3096527775 4.8186413458
H -0.8240301354 -1.0989068107 2.7663165796
C -1.6070652860 -0.0613865033 5.3474986465
O -2.2945048945 -0.0125547144 4.3423487428
C -2.1813080000 -0.2999020145 6.7485650485
O -1.3355624401 -1.2624008145 7.3427912986
N -2.1936756711 0.9958787571 7.3815249049
H -3.2127283284 -0.6512719510 6.6226205492
H -1.6978725601 -1.5277537349 8.2059552816
H -3.0274374670 1.1865988203 7.9283758028
H -1.3657454890 1.1601508816 7.9477090474
C -1.2243714276 -5.2323637987 1.0577282771
O -1.2962623496 -5.8913457461 2.0684326579
C -1.8940418012 -5.5509478928 -0.2881343169
O -2.6871855950 -4.4249226595 -0.5822098419
N -0.8262208217 -5.6979425429 -1.2536010539
H -2.4796136147 -6.4680810593 -0.1430076452
H -3.4706950359 -4.7021519182 -1.0854336636
H -0.5472306936 -6.6574426951 -1.4411205099
H -0.9725579825 -5.1633518017 -2.1138607065
O -1.1177124090 0.8666185818 -0.0408318690
C -1.5979946312 0.9237686931 -1.4611370198
N -2.9660417129 0.4855068425 -1.3799052229
C -3.2979914325 0.2737271196 -0.0312804249
C -2.2348425644 0.4530231819 0.7589679689
H -2.0694755521 0.3972014017 1.8205213330
H -3.6660712637 0.9704993054 -1.9337700182
H -1.4633933646 1.9514405135 -1.8191801193
O 0.6646265979 0.1749159378 -1.8443799144
C -0.7385223477 -0.0780499590 -2.2291291556
S -1.0171606568 0.0441964445 -4.0146984689
C 0.1369685422 -1.3539397156 -4.4309220481
C 1.4495256532 -1.1457812821 -3.7428606827
C 1.6624574880 -0.4676163166 -2.6186094977
H 0.2464832499 -1.3108982390 -5.5157260122
H 2.6494657321 -0.2926318453 -2.2100454737
H 2.3362244841 -1.5587702956 -4.2168413791
H -0.9843567138 -1.0896381773 -1.8972854747
C -0.5613433932 -2.6665431897 -4.0368596198
O -0.5147114215 -3.0673372519 -2.8857286774
C -1.3852478833 -3.4353971358 -5.0943027457
O -0.8979252185 -3.0006107593 -6.3507363088
N -1.3179725415 -4.8504423703 -4.8190896528
H -2.4308937244 -3.1221067288 -4.9452802657
H -1.4788520933 -3.3254698457 -7.0585058090
H -2.0646974348 -5.3508041134 -5.2972490882
H -0.4332355921 -5.2296660281 -5.1565362483
C -4.7170901764 -0.0955091264 0.2785117017
O -5.4985844617 -0.1653496780 -0.6464446767
C -5.1285130060 -0.2922888482 1.7449054537
O -4.0610730275 -1.0111486926 2.3661297588
N -5.4221740579 0.9959656485 2.2988230911
H -6.0556542623 -0.8758660378 1.7274774220
H -4.0854261706 -0.8310321667 3.3215477171
H -6.1458882588 0.9943204868 3.0089206576
H -4.6044959467 1.5104671797 2.6089794463
