85
# extracted from Terachem optimization
Mn 0.1085359327 -0.1200139834 -0.0785760474
O 0.7049488409 1.9421957987 -0.0619316294
C 2.0764618649 2.2482760923 0.3159908016
S 2.4461221845 3.9070251795 -0.3928586596
C 0.6880565301 4.2449683259 -0.3771858114
C -0.0359644109 3.1333853609 -0.2056616750
H -1.1060034131 3.0072099112 -0.1654121669
H 2.1195323831 2.2725471257 1.4094700526
O 2.2249370963 -0.1228429570 0.0267574204
C 2.9385565511 1.1235707955 -0.2438534467
S 4.5724738128 1.0045462434 0.5511895635
C 4.5426677351 -0.8014067824 0.1952674568
C 3.0972151361 -1.1968074255 0.5047951737
H 2.9430430846 -1.3042967628 1.5814599676
H 2.8012656482 -2.1066165914 -0.0190884948
H 4.7413188478 -0.9485761101 -0.8732425713
H 3.0275939262 1.2167372729 -1.3298967044
C 5.5324152303 -1.6225261024 0.9885169288
C 6.4712203914 -1.1633280229 1.8156426616
O 5.2870833608 -2.9393381521 0.6951502625
H 7.1512869586 -1.8362174716 2.3298937544
H 6.6072972413 -0.1040985833 1.9964907515
H 5.9527644493 -3.5016364645 1.1269913316
C 0.1495033037 5.5868091777 -0.5909977142
C 0.8970843309 6.6997660046 -0.6173197024
O -1.2076395898 5.5309787758 -0.7623283053
H 0.4585451824 7.6753134032 -0.8026800787
H 1.9646554257 6.6696394909 -0.4362734326
H -1.5629347408 6.4324758235 -0.8346078375
O -0.1635841407 -2.1566873256 0.0914266244
C -0.1426966365 -2.6656986995 1.4586873649
S -1.1358898586 -4.2147118641 1.4349374530
C -0.7401007804 -4.3728120386 -0.3030817429
C -0.2654233402 -3.2341197253 -0.8203425220
H 0.0410962178 -3.0058240858 -1.8291052663
H 0.8995586783 -2.8829873753 1.7143554535
O -0.1016297564 -0.3070684085 1.9792276930
C -0.7203343971 -1.5798743023 2.3556649100
S -0.3548228082 -1.8796608036 4.1210238243
C -0.2089861092 -0.0625652103 4.3720870982
C 0.5005536026 0.4102463210 3.1042522394
H 1.5683708142 0.1808783671 3.1441922245
H 0.3400946263 1.4728287319 2.9170710480
H -1.2156703107 0.3700260469 4.4129348370
H -1.7937893558 -1.4746459742 2.1757467864
C 0.5382380260 0.3438173842 5.6213241291
C 1.0462200704 -0.4671645430 6.5492873499
O 0.5956700724 1.7136147976 5.6263730106
H 1.5546261229 -0.0753144826 7.4254404774
H 0.9616808124 -1.5443723798 6.4774384999
H 1.0137490030 2.0213706437 6.4486960174
C -0.9823993220 -5.6049309021 -1.0519504569
C -1.3097474476 -6.7745052671 -0.4832928388
O -0.8314550798 -5.3793925808 -2.3927325507
H -1.5067690731 -7.6606311622 -1.0785529445
H -1.3745064846 -6.8833191254 0.5924987911
H -0.9325107138 -6.2156208936 -2.8772320346
O -1.9486158376 0.3936973170 -0.2950359579
C -2.3677252116 0.5552258541 -1.6874456378
S -4.1543218463 0.1085699570 -1.7625037653
C -4.2571759593 0.3752212619 0.0018728552
C -3.0545704408 0.4883107556 0.5747808530
H -2.8027941785 0.6573364502 1.6092837154
H -2.2215243748 1.6058563763 -1.9595705492
O -0.0969808784 -0.0960143695 -2.1828340738
C -1.4862605986 -0.3681564200 -2.5179669340
S -1.6959429349 -0.1278526745 -4.3280816784
C 0.0388350444 0.4754815469 -4.5133379378
C 0.4686497176 0.8871020044 -3.1052987707
H 0.1006639392 1.8829787301 -2.8439783591
H 1.5501422117 0.8411217439 -2.9842303711
H 0.6505205686 -0.3693608732 -4.8463136374
H -1.6756709016 -1.4061923400 -2.2384803858
C 0.2240727274 1.6041032055 -5.5036169981
C -0.7278694863 2.2684760696 -6.1598311388
O 1.5742195487 1.8241182787 -5.6017982579
H -0.4799474019 3.0580731858 -6.8633629102
H -1.7765684025 2.0361645878 -6.0291312677
H 1.7484926966 2.5015627210 -6.2772296682
C -5.5371299065 0.4184918655 0.7074413977
C -6.7298139584 0.4565875355 0.0959750369
O -5.3346999428 0.4098303023 2.0617156264
H -7.6576026992 0.4648544359 0.6596384966
H -6.8143095153 0.4963568854 -0.9833302450
H -6.1884049428 0.5043169159 2.5160467869
