100
# extracted from Terachem optimization
Mn 0.8266397761 0.3197660207 0.3062281619
O 0.9794851004 2.2780558539 0.6726906492
C 2.2625045642 2.6387009683 1.3185824228
S 2.4655253289 4.4521510269 1.1220676097
C 0.6973301955 4.5695691771 0.8881266499
C 0.1044590534 3.3932456521 0.6640106901
H -0.9357745961 3.1450456551 0.5222188721
H 2.1567215008 2.3709935736 2.3761336291
O 2.8124116425 0.4211559250 0.6235572657
C 3.3410778092 1.8154368726 0.6474250283
S 4.8997032402 1.9447481468 1.5539205066
C 5.8292273982 0.8109024268 0.4164760526
C 5.0583496230 -0.4575907809 0.2183367092
C 3.7391259073 -0.6025708896 0.3076743420
H 6.7651247145 0.5921544891 0.9367796160
H 3.2159639697 -1.5372554115 0.1597934525
H 5.6280318875 -1.3455322764 -0.0446482597
H 3.4876469739 2.0948873099 -0.3982448137
C 6.0951347543 1.5296783201 -0.9278895427
O 5.1997033997 1.6462121455 -1.7436518155
C 7.4955142420 2.0587971917 -1.2123431096
N 8.0381271769 2.8616849549 -0.2080469335
Cl 8.4100139916 0.4240378320 -1.5497723870
H 7.4841742566 2.5740144721 -2.1706818024
H 8.2932147602 2.3934802413 0.6561222658
H 8.8024815419 3.4553955564 -0.5175569859
C 0.1415135803 5.9596910035 1.0104845129
O 0.8953552293 6.8263147939 1.3940394790
C -1.2894567803 6.3331328306 0.6027325317
N -1.4119989523 6.4771272321 -0.7712854606
Cl -2.5027262871 5.0614216820 1.4159083824
H -1.5448006050 7.2557674116 1.1190145049
H -1.2627203216 5.6509338435 -1.3375074830
H -2.2149529793 7.0133434917 -1.0828543889
O 0.7321168700 -1.7517066273 0.4750554254
C 0.9800697471 -2.2508100234 1.8521386172
S 0.7752906256 -4.0725099846 1.7766072446
C -0.2517328119 -3.8484779195 0.3318353679
C -0.1428548065 -2.6279166572 -0.1993388020
H -0.5468151183 -2.2563346450 -1.1261811836
H 2.0067500320 -1.9806743802 2.1037563558
O 0.1161290827 -0.1247074099 2.5010726206
C -0.0226424749 -1.5472954049 2.7639506857
S 0.2502995970 -1.9608532841 4.5178404368
C -1.1961876816 -0.9606452855 5.1062401312
C -1.1828869664 0.4061845781 4.4896263339
C -0.5849826271 0.7423413013 3.3482145134
H -1.0554818854 -0.8682300971 6.1861543519
H -0.5628076208 1.7555075850 2.9674308291
H -1.7023348085 1.1930965697 5.0294702632
H -1.0455835849 -1.8329699997 2.5054109378
C -2.5029573601 -1.7259438100 4.7918069529
O -2.8914687563 -1.8420493073 3.6439578463
C -3.3082487658 -2.3092516500 5.9531327514
N -2.5663290059 -3.1082107622 6.8264523061
Cl -4.0360731775 -0.7358211162 6.7043142380
H -4.1588783142 -2.8529603200 5.5469215402
H -1.9045941679 -2.6296724477 7.4295918346
H -3.1161126882 -3.7735484495 7.3623558205
C -0.9137547636 -5.0883965302 -0.1786467840
O -0.5456409182 -6.1455536313 0.2858387280
C -2.0647851488 -5.0958407962 -1.1945566229
N -3.2762657717 -4.7367532345 -0.6600869590
Cl -1.4912276632 -4.0110958235 -2.7523583882
H -2.0956036276 -6.0831846733 -1.6482013620
H -3.4177398340 -3.8298330981 -0.2139448422
H -4.0969788835 -5.0678427258 -1.1550396652
O -1.1225111697 0.5561116010 -0.4811539608
C -1.2426101109 0.9885617311 -1.8879494692
S -2.9811922782 0.6785267385 -2.4242321843
C -3.3337409016 -0.0540902528 -0.8412277309
C -2.3086067311 -0.0229401671 0.0100205926
H -2.2570504548 -0.2982201623 1.0539126258
H -1.0027955078 2.0548428044 -1.8988100488
O 1.0566069312 0.3643267420 -2.1314332568
C -0.2310309995 0.2282470126 -2.7577652997
S -0.3001680201 0.9606371502 -4.4486731079
C 1.0933202844 -0.0135200550 -5.1326698110
C 2.2596731882 -0.0569356552 -4.2015838557
C 2.2066201267 0.1350379635 -2.8838366456
H 1.3641065600 0.4846706668 -6.0686285909
H 3.0855654610 0.1908244788 -2.2547639108
H 3.2392956859 -0.2187649700 -4.6411631562
H -0.4772091951 -0.8360735180 -2.8317301710
C 0.5278194104 -1.4320600259 -5.4640580129
O 0.4309496910 -2.2875141315 -4.6337305135
C 0.0349794013 -1.6700935576 -6.9585743808
N -0.7804666413 -0.6255153992 -7.4193284130
Cl 1.5632095068 -1.8629523128 -7.8931751336
H -0.4944013259 -2.6246832649 -6.9383098677
H -0.3691843766 0.0894963312 -8.0122052267
H -1.7454338141 -0.8467051856 -7.6471333223
C -4.7302186063 -0.5717717334 -0.7267231341
O -5.4265729744 -0.4838559797 -1.7175077153
C -5.2804180047 -1.2005046517 0.5582564381
N -4.5301358055 -2.3433896588 1.0092147246
Cl -5.3997777407 0.1535833309 1.7997441500
H -6.3053257520 -1.4842220317 0.3198708885
H -3.8598000496 -2.0964383460 1.7363662688
H -5.1632530285 -3.0165915831 1.4394931392
