118
# extracted from Terachem optimization
Mn 0.3504283319 0.3083621359 0.1799916367
O 0.6274894759 2.4851159720 0.1318587507
C 1.9897535846 2.8867507297 0.5680394076
C 2.1427955330 4.3303443768 0.0559892914
C 1.1353689488 4.3609742332 -1.0772735489
C 0.3088092946 3.3301900758 -0.9605212611
H -0.5418010641 3.0264528202 -1.5473601358
H 3.1656617432 4.5341380372 -0.2685489057
H 1.8873838437 5.0569936419 0.8368186497
H 1.9968905261 2.7899373042 1.6554773566
O 2.5220400363 0.5675240939 0.1437400114
C 2.9991638401 1.9331044357 -0.0702148454
S 4.6506555259 2.1747180791 0.6521678295
C 5.5079491125 0.9487614642 -0.4302386775
C 4.6969946952 -0.3170098041 -0.4977401686
C 3.4044587958 -0.4611036881 -0.2146332591
H 6.4345955142 0.7228426632 0.1065515360
H 2.8894419299 -1.4146681315 -0.2168655743
H 5.2319961966 -1.2225158988 -0.7682023191
H 3.0681905234 2.0785058730 -1.1495765187
C 5.9118599834 1.5214659504 -1.8275203907
O 4.7157480977 1.7926202161 -2.5323336229
C 6.8230225763 2.7521444147 -1.7178410741
C 6.7378279846 0.4134877050 -2.5422346338
O 7.3626858814 -0.4357336508 -1.9867351994
Cl 6.7268986824 0.5550945131 -4.3334147894
H 4.8524267407 2.5299293881 -3.1501532171
H 7.7361136813 2.5174085024 -1.1621463718
H 7.1163439020 3.0928740551 -2.7160954407
H 6.2973987203 3.5634518566 -1.2073619353
C 1.0823820250 5.3909038398 -2.1793970363
O -0.0881001346 5.1147063175 -2.9239079218
C 1.0978938375 6.8280726935 -1.6334636169
C 2.3292021665 5.1527555140 -3.0941674784
O 3.2584867041 4.4445564235 -2.8440805720
Cl 2.2469055784 6.0528601003 -4.6437234994
H -0.2125302650 5.8153169260 -3.5867421685
H 1.9992575435 7.0331888437 -1.0470322243
H 1.0596370589 7.5496939444 -2.4547523717
H 0.2186689192 6.9727606496 -0.9986284197
O 0.4629443919 -1.8992039345 0.4516622482
C 0.6071162108 -2.3460947655 1.8628809870
C 0.0394552462 -3.7861351722 1.8954969576
C -0.5646894545 -3.9462914672 0.5131905270
C -0.2478073396 -2.9017240407 -0.2392782749
H -0.3846657126 -2.7304984560 -1.2966766202
H -0.6947874217 -3.9053533773 2.6978505646
H 0.8352589975 -4.5189286237 2.0699239798
H 1.6746015895 -2.2863417139 2.0856161477
O 0.1769551454 -0.0237526568 2.3557134326
C -0.1843420285 -1.3862092033 2.7417506043
S 0.1256948368 -1.7013797953 4.5063895784
C -1.0468091084 -0.4155394608 5.1355845142
C -0.8315765325 0.8698452227 4.3837531081
C -0.2827881824 1.0103295963 3.1802138469
H -0.7325953907 -0.2606337084 6.1718393930
H -0.1175566359 1.9721954296 2.7090294898
H -1.1294607509 1.7852036506 4.8862458789
H -1.2522084936 -1.4966568895 2.5663949703
C -2.5451474627 -0.8604281659 5.1713137818
O -2.9441521750 -1.0384519757 3.8250226461
C -2.7756625257 -2.1281183123 6.0076719484
C -3.3299671031 0.2866842139 5.8668585796
O -2.8874023556 1.0171452759 6.6940089564
Cl -5.0642225106 0.3807056499 5.3598464778
H -3.8969677018 -1.2384028397 3.7625592592
H -2.4328463931 -1.9930952263 7.0383222191
H -3.8415074182 -2.3755724140 6.0327572557
H -2.2340314064 -2.9635947714 5.5569964660
C -1.3642503785 -5.1380476483 0.0212498016
O -1.8870849587 -4.9025409664 -1.2851562594
C -0.5032726625 -6.3991384036 -0.0599888385
C -2.6092270542 -5.2785748050 0.9516343691
O -3.0359346940 -4.3660265803 1.6105464711
Cl -3.4664855834 -6.8176897916 0.8824219414
H -2.6182035926 -4.2550538833 -1.2372788322
H -0.1123361016 -6.6834344570 0.9217719891
H -1.0866597628 -7.2294953432 -0.4604988958
H 0.3373892017 -6.2046603512 -0.7317508533
O -1.8746579929 0.3824417032 -0.0847415053
C -2.3657160155 0.4841938401 -1.4805192395
C -3.7664998308 -0.1774356721 -1.4815895025
C -3.8990834737 -0.6939965740 -0.0627145772
C -2.8523448442 -0.3103708862 0.6557522287
H -2.6652697331 -0.3924694393 1.7163984274
H -3.8279083672 -0.9787573383 -2.2247461101
H -4.5472914149 0.5525068953 -1.7222089658
H -2.3925009298 1.5516121680 -1.7105770161
O -0.0303472896 0.1927358527 -2.0330062411
C -1.3797522963 -0.2493538698 -2.3778227701
S -1.7640476128 0.0111997637 -4.1357871692
C -0.4457019078 -1.1197444871 -4.7734314629
C 0.8491204490 -0.8148413099 -4.0693148942
C 1.0004086457 -0.2126489961 -2.8919517714
H -0.3326038367 -0.8246470741 -5.8207622506
H 1.9672766165 0.0619764037 -2.4870854463
H 1.7631956638 -1.0579512549 -4.6028064297
H -1.4226143110 -1.3190764420 -2.1875325568
C -0.8345419716 -2.6347027260 -4.7704840185
O -1.0034665766 -3.0169516928 -3.4169199720
C -2.0929020084 -2.9256738249 -5.6029782786
C 0.3389748950 -3.3926818408 -5.4504993262
O 1.0509009171 -2.9410855725 -6.2886082347
Cl 0.4948343182 -5.1122626671 -4.9096536675
H -1.1765833694 -3.9743918755 -3.3466081255
H -1.9660235536 -2.6040536586 -6.6414195675
H -2.3071155043 -3.9990257670 -5.6028663104
H -2.9463764924 -2.3999617280 -5.1670085261
C -5.0677616199 -1.4949678161 0.4832245992
O -4.7891841626 -1.9919257493 1.7915025106
C -6.3325511415 -0.6432767903 0.5894275383
C -5.2226620173 -2.7649062158 -0.4116386323
O -4.3061272718 -3.2324945680 -1.0369994575
Cl -6.7809198402 -3.5867378315 -0.3516976482
H -4.1136594118 -2.6971875757 1.7421814144
H -6.6561863125 -0.2799977543 -0.3906660578
H -7.1425919323 -1.2226768095 1.0350224547
H -6.1204684821 0.2158575719 1.2317074801
