121
# extracted from Terachem optimization
Mn 0.2244147042 0.2174080962 -0.0754016196
O 0.5151339016 2.2390107393 -0.3340602893
C 1.7793172938 2.7006035822 -0.8881338196
S 2.3453611277 4.2297360875 -0.0921959137
C 0.8877903579 5.2855677097 -0.5252757563
C -0.3820836946 4.4840546327 -0.5600562207
C -0.5344893835 3.1660121009 -0.4413665379
H 0.8244833665 5.9632382538 0.3358749297
H -1.4927544497 2.6632854740 -0.4073760655
H -1.3073723524 5.0469655975 -0.6446278168
H 1.6086317300 2.8549840002 -1.9560714504
O 2.2049781831 0.3167291411 -0.4990620824
C 2.8575955951 1.6172532538 -0.7183793716
O 3.5763750525 1.5881413071 -1.8875165729
C 4.6903289736 0.6625433763 -1.8833163881
C 4.3108178693 -0.5915622929 -1.1457978257
C 3.1415295310 -0.7368571490 -0.5350821767
H 5.5534888543 1.1405498727 -1.4039302857
H 2.7870393408 -1.6090110169 -0.0025075037
H 5.0309577846 -1.3998432997 -1.0958996635
H 3.4914566418 1.7670726328 0.1655348713
C 5.0482741072 0.4317946110 -3.3775209757
O 3.9187273250 -0.1732246670 -3.9744750121
C 5.4374336278 1.7486770029 -4.0713413427
C 6.2844754705 -0.5032032027 -3.4046381280
O 7.0601352131 -0.6430299179 -2.5122077952
Cl 6.4895771428 -1.3568065800 -4.9770932731
H 4.1300770084 -0.3439102034 -4.9090326777
H 6.3029745758 2.2136773406 -3.5890421161
H 5.6938186267 1.5593040513 -5.1180767199
H 4.5932623676 2.4411464136 -4.0368072590
C 1.1965586410 6.2287701490 -1.7632030041
O 2.3949405327 6.9120367045 -1.4877259737
C 1.3867210698 5.4875653696 -3.0825219549
C 0.0676139423 7.2959489212 -1.8006631835
O 0.1485868307 8.3157081624 -1.1863812106
Cl -1.3866918194 6.9169503597 -2.7739620387
H 2.1829476215 7.7282449181 -0.9968377573
H 0.5331954011 4.8515089785 -3.3271762197
H 1.5306409367 6.2072446287 -3.8922452972
H 2.2979034740 4.8860401846 -3.0137045359
O 0.2541156910 -1.8363929773 0.6092000393
C -0.0795757574 -2.0583818380 2.0104570181
S 0.7782455232 -3.4904314846 2.7250605456
C 0.1388081282 -4.7862072902 1.5814766980
C -0.0857924551 -4.2239187233 0.2095011065
C 0.0167746467 -2.9610239271 -0.2042576364
H 0.9871529638 -5.4798551182 1.5138607975
H -0.0702878104 -2.6828336227 -1.2443735348
H -0.2855926058 -4.9352471401 -0.5866449830
H -1.1646296310 -2.1778630850 2.0522738338
O 0.4697367086 0.3391254153 1.9680791184
C 0.3237336464 -0.8335308876 2.8431740662
O -0.6749663087 -0.6122170515 3.7602916548
C -0.3609035619 0.4267395254 4.7174220716
C 0.3696438640 1.5449054296 4.0265846059
C 0.7118025589 1.4945842934 2.7441065375
H 0.2524104822 0.0014171491 5.5213004681
H 1.2148612806 2.2713494250 2.1854294498
H 0.6358160718 2.4232636306 4.6033950074
H 1.3091700965 -0.9452191862 3.3132399808
C -1.7160072908 0.8660810646 5.3385218895
O -2.4583901706 1.4753982174 4.2985065900
C -2.4652751236 -0.3194937432 5.9669078644
C -1.3819369543 1.8783775714 6.4651170035
O -0.3385448021 1.9626122925 7.0303718161
Cl -2.7799695298 2.9350234313 6.8993429933
H -3.2491879907 1.8829217748 4.6946205416
H -1.8652904948 -0.8112722130 6.7391280321
H -3.3957679836 0.0268852630 6.4262374750
H -2.7081488259 -1.0436576995 5.1860736416
C -1.0219494397 -5.6325939274 2.2527688780
O -0.5529709703 -6.0749333184 3.5031925019
C -2.3045925441 -4.8458674386 2.4984333805
C -1.2161854435 -6.8921327551 1.3682256276
O -0.5845516482 -7.8893226451 1.5396084944
Cl -2.4049900225 -6.7763744212 0.0248795321
H -0.0826487514 -6.9207503252 3.3796043455
H -2.6803845453 -4.3797160086 1.5849105495
H -3.0763087041 -5.5081132751 2.8984075875
H -2.1018375414 -4.0813230105 3.2542745192
O -1.9550847565 0.2414413427 -0.0571577945
C -2.6160687117 -0.4659868764 -1.1438572843
S -4.2186561536 0.2579970255 -1.5954231257
C -5.0545808417 0.0695705007 0.0357695929
C -4.0773151593 0.2805768605 1.1547830690
C -2.7513774526 0.4023479797 1.0933294408
H -5.7492898853 0.9192338240 0.0446801257
H -2.1495636998 0.6539516586 1.9551300357
H -4.4905429405 0.4291693253 2.1481248535
H -2.7252120856 -1.5012540507 -0.8140371722
O -0.3436912706 -0.1560110623 -2.0317998220
C -1.7352527280 -0.4404073519 -2.4022025749
O -1.8330560199 -1.6864579708 -2.9748078956
C -1.1517226658 -1.8117382154 -4.2446689213
C 0.1438966058 -1.0546531834 -4.1926372414
C 0.5118909458 -0.3238416423 -3.1463893667
H -1.7990450582 -1.4227577850 -5.0405117674
H 1.4515929327 0.2009323916 -3.0412348743
H 0.8096686958 -1.1019031135 -5.0460700764
H -2.0040545778 0.3648650654 -3.0981395523
C -0.9745817804 -3.3356184386 -4.4834361122
O -0.1010035087 -3.8021802728 -3.4720657565
C -2.3252862523 -4.0700407483 -4.4734741418
C -0.3434828101 -3.5017599684 -5.8893436860
O -0.3619094295 -2.6880042846 -6.7580653349
Cl 0.4237605716 -5.1179939706 -6.1274914821
H 0.1062537095 -4.7343161892 -3.6623677952
H -2.9908736696 -3.6947223068 -5.2575322551
H -2.1723120087 -5.1400970569 -4.6411218323
H -2.8058230688 -3.9307779705 -3.5028890408
C -5.9835277342 -1.2135291939 0.0793361190
O -6.8573689645 -1.1501284217 -1.0217684401
C -5.2346134952 -2.5391169068 -0.0180459246
C -6.8550592608 -1.0846023527 1.3571447466
O -7.9041882947 -0.5189661587 1.3563401836
Cl -6.1917148396 -1.7887646375 2.8725555169
H -7.6471261236 -0.6373770075 -0.7667072402
H -4.4538011124 -2.6298795210 0.7403203889
H -5.9363159754 -3.3689149681 0.0977548004
H -4.7990570607 -2.6158174079 -1.0185362204
