115
# extracted from Terachem optimization
Mn -0.0599136516 0.0033134176 -0.0931687332
O 0.5774659219 2.5163611254 -0.0525615487
C 2.0157783403 2.5300172391 0.1426322796
S 2.6343078462 4.1787837630 -0.4173263350
C 0.9851588454 4.7237635125 -0.6738261457
C 0.0826346310 3.7406341248 -0.4380986690
H -0.9946884163 3.8227567312 -0.4932394609
H 2.2003441096 2.4288080395 1.2171426742
O 1.9902063916 0.1279667986 -0.1124136536
C 2.6288289582 1.3398182524 -0.6112261607
C 4.0834703881 1.1010662262 -0.3457519400
C 4.2928804925 -0.0538121553 0.2936141300
C 2.9829375971 -0.7530173888 0.5431817258
H 2.7162363202 -0.8411800064 1.6008175799
H 2.9158552230 -1.7340181876 0.0749519004
H 4.8509575831 1.7886623885 -0.6816517238
H 2.3835111370 1.4354893693 -1.6747910350
C 5.6506444627 -0.6090391210 0.7261020806
N 6.8138196324 0.0453446390 0.1768406392
C 5.7606083343 -2.1328339598 0.4927440986
N 4.8226153641 -2.8533394757 1.3441603827
Cl 5.3826285612 -2.5431238397 -1.2450922064
H 5.7092877890 -0.4946297142 1.8206116174
H 6.8332573770 0.0390787260 -0.8393297033
H 6.9553768132 0.9886486133 0.5219875820
H 6.8115004755 -2.4097655417 0.6137804733
H 4.8119855986 -3.8364295677 1.0717267621
H 5.1862312941 -2.8350088995 2.2995324244
C 0.7741289697 6.1836445995 -1.0991998809
N 1.9333316017 7.0197109168 -0.9901737531
C -0.4241359177 6.8250034192 -0.3517802364
N -1.6645110932 6.1358965611 -0.6686623454
Cl -0.1552267906 6.7344350127 1.4458924691
H 0.4816682466 6.1710539778 -2.1592391666
H 2.3282475609 7.1388860825 -0.0651958847
H 2.6230862760 6.9672404585 -1.7274629621
H -0.4054353005 7.8952952216 -0.5792761449
H -2.3992855791 6.4439823007 -0.0325085431
H -1.9633781869 6.4216258950 -1.6036283447
O -0.0671782849 -2.5678943303 0.6053437515
C -0.0606385416 -2.5260641524 2.0568388041
S -0.7903533825 -4.1150601769 2.6598783792
C -0.8314577865 -4.7290941105 1.0206808015
C -0.4309677219 -3.7968385107 0.1177327039
H -0.3356918532 -3.9350305473 -0.9509254093
H 0.9859429056 -2.4777268263 2.3762220430
O -0.1359551573 -0.1192406727 1.9381034682
C -0.8216052461 -1.2720549707 2.5138970630
C -0.7896490826 -0.9951083144 3.9856932073
C -0.1169733508 0.1241965837 4.2694668508
C 0.4182019880 0.7441109668 3.0062440764
H 1.5104918025 0.7252886927 2.9322440689
H 0.0647347733 1.7581626317 2.8264931413
H -1.2986267598 -1.6266508811 4.7043274580
H -1.8331036043 -1.3055648107 2.0902908288
C 0.0939605297 0.7221794531 5.6602973259
N -0.6684108686 0.1309871219 6.7330708618
C -0.1166114521 2.2549083087 5.6666912393
N 0.9099631776 2.9224685287 4.8808114891
Cl -1.7442705512 2.6746576549 4.9444410404
H 1.1577478477 0.5888014284 5.9134838269
H -1.6700711044 0.1300665125 6.5626181480
H -0.3573733163 -0.7962371802 7.0017875496
H -0.1958998988 2.5740555936 6.7095021876
H 0.6867987888 3.9154615635 4.8111704121
H 1.7896254435 2.8713014851 5.3996169205
C -1.2789041344 -6.1826370954 0.8122747426
N -1.4382225136 -6.9425973686 2.0159992135
C -0.3394891672 -6.9225892265 -0.1753994750
N -0.3730099123 -6.2988077081 -1.4888002544
Cl 1.3690880502 -6.8767143343 0.4463498610
H -2.2590669998 -6.1517483991 0.3144538506
H -0.6083142081 -7.1080210273 2.5721547262
H -2.2811759314 -6.8038609908 2.5559405066
H -0.6164877131 -7.9809698950 -0.1483052988
H 0.3965727580 -6.6559970569 -2.0545627620
H -1.2298357482 -6.5906816213 -1.9643428533
O -2.0210242243 0.2968548377 -0.2644062071
C -2.4808814784 0.3428622491 -1.6623990781
S -4.2767868311 -0.0043917498 -1.6102398710
C -4.3023182965 0.6234833536 0.0677817963
C -3.0855729626 0.7101780696 0.6036288535
H -2.7707513813 1.0799257795 1.5672210136
H -2.3035489528 1.3621095240 -2.0242968872
O -0.2352113441 -0.3349775628 -2.0330857023
C -1.6225344317 -0.6684420742 -2.4046336814
C -1.6067247459 -0.6140327177 -3.8981142104
C -0.3802340582 -0.3938811115 -4.3780953426
C 0.6097286904 -0.2233297642 -3.2566904582
H 1.0940517452 0.7555224674 -3.2401757115
H 1.3702363690 -1.0023474406 -3.2192686721
H -2.4921680299 -0.8067172749 -4.4926043558
H -1.8479208002 -1.6717538841 -2.0161199979
C 0.0056221048 -0.3298589224 -5.8564451934
N -1.0155867345 -0.7037876150 -6.8040551263
C 1.2940926310 -1.1342999878 -6.1463083366
N 2.4360493911 -0.5319985239 -5.4740597921
Cl 1.1195737096 -2.8499606307 -5.5437681088
H 0.2771193201 0.7151561097 -6.0760870681
H -1.3609097585 -1.6504874077 -6.6727953748
H -1.7902839593 -0.0511454969 -6.8564800650
H 1.3852820405 -1.2368976734 -7.2312802993
H 3.2394569328 -1.1564820441 -5.5461234044
H 2.6954023370 0.3143072065 -5.9856028243
C -5.6666490207 0.9865846917 0.6764968613
N -6.8015561818 0.8497445466 -0.1981447766
C -5.6480828908 2.4090750878 1.2888992595
N -4.7271867867 2.4782415817 2.4106436177
Cl -5.1249207405 3.6322236174 0.0390985296
H -5.8352496982 0.3108929456 1.5261827561
H -6.7655788998 1.4214615216 -1.0357429826
H -7.0825219869 -0.1016567664 -0.4046005472
H -6.6854236592 2.6785101533 1.5100425857
H -4.6206993323 3.4489897846 2.7033529086
H -5.1511745271 1.9915760212 3.2033778009
