100
# extracted from Terachem optimization
Mn -0.1075653621 -0.1434022936 0.2261201740
O -0.2278290907 2.0863025611 0.1702088658
C 0.8914876863 2.7992595158 -0.4605173933
S 0.1565969131 4.1127402919 -1.5230890942
C -1.3588741084 3.9782281088 -0.5874959260
C -1.3842861242 2.9041389396 0.1976157887
H -2.1593971923 2.5401705294 0.8561218945
H 1.4912473964 3.2310629601 0.3476870827
O 1.8990860213 0.6119004317 -0.3964892502
C 1.7037187302 1.7863161131 -1.2724322005
C 2.9991583111 2.3315696631 -1.7960066352
C 4.1389424817 2.1706164801 -1.1032902593
C 4.1042287245 1.3772221950 0.1287391014
C 3.0365389151 0.6326836011 0.4244152514
H 2.9865997659 2.8476362069 -2.7492611704
H 2.9300820276 -0.0423645574 1.2630740827
H 4.9655695847 1.3286656874 0.7861612144
H 1.0783531167 1.4031817150 -2.0825990869
C 5.4653081768 2.7191379620 -1.5859828330
C 6.0182877835 3.7923561664 -0.6344575477
O 5.2509260662 3.2361910296 -2.8872640136
H 6.1778581759 1.8763210379 -1.6189848362
H 6.9892538467 4.1461932514 -0.9986743443
H 5.3330232862 4.6443067548 -0.5877881843
H 6.1744711381 3.4062561505 0.3784971054
H 6.0768814694 3.6381379138 -3.1985333774
C -2.4039629314 5.0480079597 -0.7839961306
C -3.7780789468 4.6800573101 -0.2228122311
O -2.4366801914 5.2626988611 -2.1928220156
H -2.0354729061 5.9524627287 -0.2736323269
H -4.4801127144 5.4978997283 -0.4128130572
H -4.1667067145 3.7799821232 -0.7088659508
H -3.7433477776 4.5251033204 0.8614634055
H -2.8499421087 6.1239353336 -2.3659676603
O 0.1550320571 -2.1869157473 0.9127368228
C 0.5956432049 -2.4945521667 2.2693340630
S -0.2490950598 -4.0666265042 2.7340136811
C -0.4076747032 -4.4409672026 0.9934026618
C -0.1690543799 -3.3827605190 0.2243697999
H -0.2099253181 -3.2642944901 -0.8472093060
H 1.6834109302 -2.6236832897 2.2350024749
O 0.4915835485 -0.1089339813 2.4135978175
C 0.1980081972 -1.3380980111 3.1782827692
C 0.9254270130 -1.3693998648 4.4907964750
C 1.1796588734 -0.2241157133 5.1424709466
C 0.8110182315 1.0360366641 4.4928130543
C 0.5058996100 1.0626481884 3.1936561199
H 1.1796456591 -2.3294695547 4.9280545119
H 0.2919937857 1.9363898824 2.5947262377
H 0.8163503086 1.9698442559 5.0453191918
H -0.8957545973 -1.3442592986 3.3132161837
C 1.8396582717 -0.1895047538 6.5033194552
C 3.2280470455 0.4671094623 6.4636397077
O 1.9060388753 -1.5273982105 6.9641443753
H 1.1844812560 0.4120616048 7.1587345348
H 3.6553165032 0.4985601512 7.4721021701
H 3.8989106815 -0.1114846878 5.8206717674
H 3.1848519412 1.4980382386 6.0956237466
H 2.3571295696 -1.5372105501 7.8226776971
C -0.8370799426 -5.8335621081 0.6056210374
C -1.2787898643 -5.9557686371 -0.8528846352
O -1.8937524649 -6.1366007452 1.5165588453
H 0.0179452079 -6.5035550566 0.7867228050
H -1.5928416195 -6.9845467537 -1.0549370695
H -2.1271964823 -5.2947883482 -1.0557190864
H -0.4579506246 -5.7243650424 -1.5410816170
H -2.0288645432 -7.0981482348 1.5281621566
O -2.2738990872 -0.2828425594 0.0104017240
C -2.6647396081 -0.0555811572 -1.3819828966
S -4.4371002696 -0.5219397540 -1.5035840055
C -4.2181487836 -1.5686308129 -0.0692848938
C -3.0730724591 -1.3219543415 0.5610228435
H -2.6680580424 -1.7621040151 1.4597936820
H -2.5175166007 1.0073274250 -1.5813683244
O -0.4016329846 -0.7320999492 -1.8861005642
C -1.8068138197 -0.9302600492 -2.3092262143
C -1.9858873388 -0.5778669966 -3.7575930486
C -0.9754271300 -0.7411707412 -4.6262335662
C 0.3204624404 -1.1932685020 -4.1128578720
C 0.5741124878 -1.1657405832 -2.8023578667
H -2.9645461856 -0.2611733873 -4.0998419150
H 1.5166207772 -1.3929902176 -2.3197914450
H 1.1028592791 -1.5225901480 -4.7888236277
H -2.0377599713 -1.9885203230 -2.1098087648
C -1.1224125895 -0.4654133816 -6.1076272431
C -0.2486863388 0.7120659051 -6.5668289549
O -2.4966494755 -0.2232951133 -6.3511212138
H -0.7923933935 -1.3771493651 -6.6372324650
H -0.3469002676 0.8535284589 -7.6489407207
H -0.5670627132 1.6317726914 -6.0657484318
H 0.8126152969 0.5413693977 -6.3556746652
H -2.6109662329 -0.0172089565 -7.2918275589
C -5.3021694688 -2.5543831018 0.2974857483
C -4.9182208066 -3.4789255076 1.4552960006
O -5.5721088213 -3.2752061930 -0.9008244960
H -6.1851407227 -1.9621405212 0.5901195843
H -5.7553097775 -4.1501689986 1.6731925842
H -4.0507066664 -4.0945874847 1.1991435997
H -4.7110360138 -2.9150913798 2.3717300729
H -6.4003732660 -3.7675103916 -0.7791088934
