148
# extracted from Terachem optimization
Mn -0.0523033876 -0.1024042693 0.0791954929
O 0.1092452151 1.9701140695 0.0865370299
C 1.4312723098 2.5177014116 0.5523737795
N 1.4429511093 3.8901512221 0.2035937788
C 0.6053866602 4.0470917307 -1.0096953138
C -0.4575414161 2.9220517731 -0.8622440907
H -1.3973070207 3.2862941750 -0.4429355569
H -0.6433885999 2.3961765324 -1.7992285280
H 1.2279892251 3.8324053894 -1.8840704985
H 1.0996977474 4.4838066544 0.9545151949
H 1.4806173178 2.3543761101 1.6303768440
O 2.2629856694 0.2984146113 0.0715366787
C 2.5283169610 1.7089088766 -0.1485119479
C 3.9048616471 1.9173012444 0.3949334978
C 4.4537361256 0.7579141698 0.7995010088
C 3.4596438919 -0.3602750903 0.5628790079
H 3.2092841000 -0.9084286714 1.4787945064
H 3.8034696778 -1.0795568961 -0.1910679705
H 4.3654966822 2.8970172208 0.3950901548
H 2.4782687672 1.9080572195 -1.2297245450
C 5.7868352006 0.5127045522 1.3527869900
C 6.6822503639 1.5721993710 1.6110157138
C 7.9447550274 1.3306909061 2.1226562471
C 8.3800990791 0.0150572196 2.4024893693
C 9.7366810737 -0.2223832771 2.9228619612
C 10.7854546077 0.6061453296 2.7479945594
Cl 9.9976197944 -1.7115947862 3.8098278346
C 7.4816416095 -1.0413161429 2.1619874386
C 6.2173997994 -0.7957763412 1.6430282472
H 6.3826386911 2.5981847996 1.4224757852
H 8.5945155505 2.1718590434 2.3371477617
H 11.7633188003 0.3749887281 3.1539204123
H 10.6861714231 1.5191066199 2.1709473770
H 7.7849959600 -2.0605866611 2.3705228597
H 5.5650083092 -1.6440537118 1.4550063798
C 0.0365967068 5.4414158029 -1.1558706052
C 0.3903269725 6.2371594596 -2.2517539336
C -0.1202609442 7.5239302907 -2.3923456072
C -0.9947778769 8.0634302470 -1.4312006525
C -1.5064754191 9.4421503451 -1.5811373000
C -0.8613935371 10.4395835679 -2.2058587146
Cl -3.0728631239 9.7747674401 -0.8566562849
C -1.3546201170 7.2576053884 -0.3355789815
C -0.8451753980 5.9711001321 -0.2017424643
H 1.0653318594 5.8480458866 -3.0097531924
H 0.1445043113 8.1070248628 -3.2678364953
H -1.2911071266 11.4310281150 -2.2884176090
H 0.1264026196 10.2848153407 -2.6272473541
H -2.0325836009 7.6473006711 0.4150774195
H -1.1460014150 5.3820213086 0.6633357305
O 0.2777844262 -2.0855150666 0.2830835973
C 0.4139749033 -2.5255271059 1.7131995503
N 0.1567779766 -3.9262821569 1.7363045215
C -0.4782040819 -4.3105343313 0.4493804257
C 0.1215387650 -3.2859902905 -0.5319341772
H 1.1065369632 -3.5902253134 -0.8957213614
H -0.5268255101 -3.0456852714 -1.3726496375
H -1.5564708961 -4.1311903632 0.5292316705
H 0.9998972650 -4.4719224552 1.8919114756
H 1.4238511290 -2.2798746670 2.0569418021
O -0.3945554201 -0.2913711696 2.0685166639
C -0.6132939668 -1.6875824969 2.4709779186
C -0.4789056761 -1.6521521219 3.9552522259
C -0.3245858301 -0.3983000757 4.4170262320
C -0.3142505593 0.5659379127 3.2508697966
H 0.6099024571 1.1480259321 3.1892176867
H -1.1705285491 1.2490992614 3.2415512571
H -0.5623159473 -2.5576826846 4.5427279345
H -1.6183422705 -1.9932804133 2.1452114533
C -0.2011437439 0.0677011416 5.7992550466
C -0.1229876611 -0.8404241922 6.8752861437
C -0.0140985601 -0.3922041640 8.1802703549
C 0.0190156834 0.9883792350 8.4774801983
C 0.1110651841 1.4448433255 9.8765762115
C -0.3043267509 0.7415906371 10.9449260139
Cl 0.7937125075 3.0402495841 10.1414098760
C -0.0426933587 1.8948936430 7.4040861512
C -0.1556679834 1.4425913353 6.0956946891
H -0.1298767719 -1.9099358578 6.6895481884
H 0.0763515028 -1.1184048591 8.9805661177
H -0.2110029218 1.1315974184 11.9516788054
H -0.7715085743 -0.2301992809 10.8265806233
H -0.0141890137 2.9602506254 7.6009101522
H -0.2198275103 2.1805575408 5.3002742117
C -0.2454328975 -5.7578985132 0.0801419442
C -1.3292162537 -6.6324437178 -0.0628191856
C -1.1295685316 -7.9649634868 -0.4090409696
C 0.1669123902 -8.4726128312 -0.6122244580
C 0.3638148608 -9.8973906354 -0.9556777023
C -0.4581504038 -10.8961356908 -0.6000876405
Cl 1.8060836857 -10.2816366434 -1.8842191046
C 1.2528163651 -7.5897562837 -0.4735596563
C 1.0484547027 -6.2579463571 -0.1306900438
H -2.3428432635 -6.2701217997 0.0894816240
H -1.9893630300 -8.6122337593 -0.5443426154
H -0.2626147795 -11.9226662159 -0.8870352485
H -1.3352098531 -10.7057991368 0.0098093422
H 2.2614899905 -7.9533988022 -0.6322853706
H 1.9188005715 -5.6117066677 -0.0299950211
O -2.3845767914 -0.0415184382 -0.3805324959
C -2.6435196084 0.1640479652 -1.8067279685
N -3.9574735890 -0.3554877847 -2.0853262348
C -4.4108178101 -1.1126740504 -0.8904218668
C -3.6296504830 -0.4273117895 0.2483431937
H -4.1425097838 0.4640165164 0.6251032624
H -3.3962529766 -1.0907176091 1.0832612891
H -4.0557002986 -2.1459010650 -0.9825525749
H -4.6165393320 0.3874945340 -2.3000387481
H -2.5755064807 1.2324322423 -2.0397257586
O -0.2448089631 -0.1757192817 -2.0379104785
C -1.5493773485 -0.6009879566 -2.5562307956
C -1.4427129874 -0.3343979977 -4.0219014973
C -0.2020131411 0.0457044688 -4.3749688992
C 0.6715548877 0.0812767546 -3.1396163937
H 1.1497942301 1.0518258736 -2.9705764523
H 1.4472328120 -0.6941776932 -3.1430031472
H -2.2874628669 -0.4974164969 -4.6791183335
H -1.6820044108 -1.6694071495 -2.3344388184
C 0.3309044738 0.3609728476 -5.7020306591
C -0.5009153485 0.3997666966 -6.8402449733
C 0.0144104328 0.6955912298 -8.0905941959
C 1.3897287494 0.9653082969 -8.2684699351
C 1.9219132986 1.2574426491 -9.6115472720
C 1.3665300379 0.8498790615 -10.7674445021
Cl 3.4084480807 2.1877466166 -9.6857007251
C 2.2178033607 0.9407897166 -7.1318724906
C 1.6987804298 0.6401901134 -5.8791500154
H -1.5660975551 0.2130722540 -6.7456826157
H -0.6598465572 0.7489349569 -8.9382982204
H 1.8071512323 1.0974065342 -11.7260995419
H 0.4716106521 0.2368597186 -10.7722692543
H 3.2765896274 1.1474738264 -7.2355523226
H 2.3813707457 0.6140381531 -5.0338237997
C -5.9150559657 -1.1224593894 -0.7322658087
C -6.6230519068 -2.3302195309 -0.7684865990
C -8.0065429585 -2.3511084082 -0.6290867064
C -8.7339919221 -1.1574248864 -0.4578855770
C -10.2049437516 -1.1944347800 -0.3396612422
C -10.9969968243 -2.1501395986 -0.8603833288
Cl -10.9587418479 0.1288101490 0.5292789191
C -8.0186596648 0.0538284210 -0.4115849461
C -6.6358445199 0.0679495311 -0.5506789191
H -6.0892605747 -3.2675792452 -0.9017819694
H -8.5244618977 -3.3040531228 -0.6311743770
H -12.0732753102 -2.1245867717 -0.7364161302
H -10.5786096601 -2.9637063237 -1.4434304101
H -8.5525546140 0.9869930480 -0.2739438573
H -6.1227988525 1.0269523887 -0.5155279641
