109
# extracted from Terachem optimization
Mn 0.6185458475 -0.3889294660 -0.0719302874
O 1.0711402477 1.8141986690 -0.1217510175
C 2.4981871098 2.1777098855 -0.3566418288
N 2.4401720357 3.3910022205 -1.1268614556
C 1.0965609062 3.6260617564 -1.4755388390
C 0.3096723381 2.6967120088 -0.9214916141
H -0.7460182787 2.5055702673 -0.9745940303
H 2.9897663851 4.1943305634 -0.8420573827
H 2.9774513344 2.2838590026 0.6209973460
O 2.7238078407 -0.2504755603 -0.6416125083
C 3.1383232800 1.0549118104 -1.1978739692
S 4.9156197289 1.2603532500 -1.4504522872
C 5.4323250274 0.6698944151 0.2323641954
C 4.8467279450 -0.6965737923 0.4682874485
C 3.6452935363 -1.0691442692 0.0376193142
H 5.1006606487 1.3860483334 0.9971589742
H 3.2447243796 -2.0720842965 0.1229006605
H 5.4632509102 -1.4355391217 0.9710663516
H 2.6847841112 1.0926217439 -2.1921313524
C 6.9747331290 0.7104360915 0.2441685707
O 7.5831603881 0.9614895756 -0.7728999489
C 7.7065999078 0.5886553233 1.5932978003
O 7.5202182835 1.8453589042 2.2516770546
N 7.2088799109 -0.4867732239 2.4092578423
H 8.7584146515 0.4051909585 1.3514784603
H 8.1690209526 2.4859719621 1.9138149895
H 7.9198078497 -0.7694618413 3.0811913322
H 6.4163352771 -0.1550580741 2.9594489282
C 0.7842755568 4.7802889625 -2.3635406825
O 1.6841689001 5.5454609376 -2.6480766171
C -0.6427098963 4.9670751985 -2.9029129076
O -1.0799563557 3.6716556660 -3.3727378079
N -1.4592886427 5.5788275548 -1.9008022812
H -0.5506967246 5.6632867687 -3.7409946738
H -1.6174901032 3.7740994052 -4.1873837445
H -2.2919788688 6.0182101600 -2.2826746111
H -1.7289702960 4.9351180750 -1.1628378767
O 0.5901180030 -2.5693385486 0.2330159323
C 0.6822004856 -3.0414452961 1.6207133083
N -0.0631564390 -4.2777765091 1.5966018730
C -0.1145272310 -4.7057514893 0.2576013181
C 0.2258784087 -3.6985057402 -0.5561037884
H 0.2074743860 -3.5704924605 -1.6242984879
H 0.1649298781 -4.9941707103 2.2791838011
H 1.7555475463 -3.1582297728 1.8506806744
O 0.5795563211 -0.6947805105 2.1420261680
C 0.0569298662 -1.9970602866 2.5463046945
S 0.4787143653 -2.4158672102 4.2648413047
C -0.3879623215 -0.9633488745 5.0186170288
C -0.0524716232 0.2938291860 4.2756194416
C 0.3757600185 0.3796178734 3.0168527413
H 0.0171758930 -0.9189481175 6.0324655971
H 0.6373336602 1.3128155268 2.5308766515
H -0.1746903108 1.2288454879 4.8158448592
H -1.0282966364 -1.9623444202 2.4238177949
C -1.9074858892 -1.2409697753 5.0662050854
O -2.5694606142 -1.2243674017 4.0427559621
C -2.5072002571 -1.5219139474 6.4477815852
O -1.7785001787 -2.5743101094 7.0671605618
N -2.3985937721 -0.2963895937 7.1924541352
H -3.5638196742 -1.7703780289 6.3001791609
H -2.1857923881 -3.4320964852 6.8631005138
H -3.1520708702 -0.1992530814 7.8683900152
H -1.5231873267 -0.2743397909 7.7124762761
C -0.5221801802 -6.1162055243 -0.0124960056
O -0.8613461116 -6.8048499403 0.9296485516
C -0.4292512944 -6.6513427054 -1.4501516309
O -0.9308366618 -5.6742371844 -2.3774797002
N 0.9367444787 -6.9887806256 -1.6996330901
H -1.0258838849 -7.5681956969 -1.4791743734
H -1.8725069532 -5.8454413722 -2.5429666198
H 1.0303205068 -7.5771239638 -2.5238746752
H 1.5108539408 -6.1596595665 -1.8315251621
O -1.5191625452 0.2308557684 -0.1178327757
C -2.2573031400 0.1047329484 -1.3835748574
N -3.5725721553 -0.2874517644 -0.9388173063
C -3.7180013333 0.2309457872 0.3642171320
C -2.5092785007 0.5105673960 0.8717165210
H -2.1608495865 0.7954920271 1.8484807147
H -4.3536604049 -0.1266294930 -1.5678134211
H -2.2249841222 1.0972164321 -1.8672450675
O -0.1274148291 -0.7797712230 -2.1150044374
C -1.5961301791 -0.9518822085 -2.2658434713
S -2.2292212598 -0.8884444406 -3.9616836438
C -1.1200230170 0.5117922256 -4.4911165467
C 0.2951959204 0.0227948420 -4.3490815759
C 0.6944352088 -0.5969636585 -3.2411842611
H -1.2897997724 1.3794008891 -3.8407120178
H 1.6668640366 -1.0504293945 -3.0927153891
H 0.9852873329 0.1083085375 -5.1812018240
H -1.8293109440 -1.9431458555 -1.8688270791
C -1.5447508688 0.9102516058 -5.9095855848
O -2.3473631999 0.2425511665 -6.5242630853
C -1.0270140810 2.2459458442 -6.4790709820
O -1.9501718598 3.2657935907 -6.0086281687
N 0.3086546573 2.5347223447 -6.0771978665
H -1.0817472011 2.1723465126 -7.5689526660
H -2.7806603206 3.2095924662 -6.5131816639
H 0.7154634348 3.2656051417 -6.6563084344
H 0.3328271826 2.8504041905 -5.1079874670
C -5.0910193905 0.3105605049 0.9394951551
O -6.0054788162 -0.1789532210 0.3052888182
C -5.3135092998 1.0575411763 2.2690088641
O -4.2073248574 0.9193053679 3.1582881548
N -5.5350310685 2.4375520743 1.9477969481
H -6.2358623699 0.6474932962 2.6964942034
H -4.1371046214 0.0055551539 3.4906316827
H -5.9786363114 2.9228360743 2.7238454315
H -4.6473755717 2.8992401372 1.7593517874
