115
# extracted from Terachem optimization
Mn 0.0279337533 -0.1112612810 -0.0925463289
O 0.4237910673 2.0299562161 -0.0232297659
C 1.8029248410 2.3303397623 0.3167272034
S 2.0813789614 4.0748587794 -0.1911442803
C 0.3132490907 4.3505998621 -0.0113416202
C -0.3606571673 3.2020787075 0.0548529025
H -1.4236810762 3.0575476480 0.1742533588
H 1.8976904814 2.2466169783 1.4053111556
O 2.1018457909 -0.0085923739 -0.0603823107
C 2.6784189635 1.2946820157 -0.3842274562
C 4.0907777380 1.1825314140 0.0999037671
C 4.3495014615 -0.0272828593 0.6027374541
C 3.1140966265 -0.8891185193 0.5398823271
H 2.7521329459 -1.2096715565 1.5224992723
H 3.2314869628 -1.7680269764 -0.0941701247
H 4.8016352634 1.9926921552 -0.0108154740
H 2.6099537713 1.4354179590 -1.4685362307
C 5.6846128160 -0.4987253615 1.1673840074
N 6.8073226363 0.4021693947 0.9962556198
C 6.0859085629 -1.9003973607 0.6543813014
N 5.1544068557 -2.9132555288 1.1308265895
Cl 6.0858671353 -1.9355725024 -1.1683165750
H 5.5510383428 -0.6344187137 2.2532015059
H 6.9772040134 0.6108268398 0.0148029311
H 6.6882234662 1.2748637648 1.5019994395
H 7.1328504491 -2.0631094566 0.9277366709
H 5.3182524139 -3.7875453886 0.6327627961
H 5.3642026711 -3.1037635390 2.1124686749
C -0.2089437741 5.7913854630 0.0136034758
N 0.7869497746 6.8256536491 0.2035487369
C -1.3438433945 5.9887605739 1.0454588363
N -2.4914972730 5.1558985792 0.7287743187
Cl -0.7737789718 5.5621651728 2.7245318972
H -0.6798173569 5.9882664253 -0.9607149713
H 1.3392721439 6.6868867630 1.0455055224
H 1.4035733090 6.9408626985 -0.5944692309
H -1.5416546605 7.0640600171 1.0998512436
H -3.1541289736 5.1634775607 1.5024527976
H -2.9782856126 5.5637248865 -0.0714384923
O -0.2333565215 -2.1671414001 0.0920474570
C -0.1484007097 -2.6496151041 1.4625208619
S -1.0351933094 -4.2575893730 1.4910951567
C -0.7593103369 -4.4009093224 -0.2822028713
C -0.3610508189 -3.2461766017 -0.8119225363
H -0.1252358678 -3.0167155019 -1.8395012428
H 0.9122032716 -2.8054013818 1.6940690774
O -0.1097586556 -0.3074401550 1.9734053244
C -0.7492830271 -1.5650178160 2.3533480489
C -0.4573111854 -1.6821927851 3.8167558085
C 0.2595167726 -0.6482148166 4.2641173313
C 0.5585534792 0.3049160807 3.1342620166
H 1.6271713363 0.3957154027 2.9140181528
H 0.1431714656 1.3016150721 3.2814082256
H -0.8316832046 -2.5043600230 4.4149349226
H -1.8198788671 -1.4806813427 2.1310209521
C 0.7414714716 -0.4431981587 5.6961514486
N 0.2222603982 -1.3652574251 6.6866097700
C 0.5288370784 1.0033266007 6.1946005505
N 1.3579842185 1.9342388849 5.4442948819
Cl -1.2161799621 1.5003817949 5.9888642412
H 1.8366049281 -0.5702121120 5.6919074033
H -0.7935529153 -1.3319990391 6.7388578692
H 0.5101762591 -2.3240994010 6.5147994181
H 0.6814358283 1.0047770330 7.2780454111
H 1.0918168636 2.8908083395 5.6754587445
H 2.3243894600 1.8256372420 5.7579745371
C -1.0155997060 -5.7485360391 -0.9609906552
N -0.7928302226 -6.9223052333 -0.1390390024
C -0.2364678300 -5.9206144205 -2.2854808510
N -0.5910854854 -4.9046601248 -3.2628550535
Cl 1.5650284877 -5.8271979608 -2.0036449789
H -2.0777162471 -5.7713628744 -1.2491817180
H 0.1247798513 -6.9209340762 0.2982493868
H -1.5043533209 -7.0513812212 0.5735774977
H -0.3934726730 -6.9552293540 -2.6056120191
H -0.0264136834 -5.0353857015 -4.1014360224
H -1.5623291947 -5.0517347016 -3.5446138746
O -2.0308117066 0.2866813443 -0.3026669712
C -2.4330439145 0.5368049695 -1.6798629814
S -4.2246381620 0.1280481335 -1.7832385627
C -4.3399239786 0.3244365996 -0.0034464809
C -3.1392786668 0.3878571197 0.5706652850
H -2.8934787007 0.5362056604 1.6105581017
H -2.2819792161 1.6040709961 -1.8808592277
O -0.1645243406 -0.0840732113 -2.1477511275
C -1.5397589676 -0.3106076049 -2.5854857207
C -1.5229139109 0.1071003503 -4.0254111212
C -0.3533458152 0.6563608644 -4.3627139838
C 0.5736675705 0.6666664993 -3.1753037177
H 0.7761206111 1.6714434661 -2.7897157420
H 1.5149152731 0.1499809992 -3.3561755686
H -2.3699919308 -0.0496170501 -4.6826933306
H -1.7660800737 -1.3714545184 -2.4307418752
C 0.0240126541 1.2171703435 -5.7284717111
N -0.9132096770 0.9640030977 -6.8055029185
C 1.4358649534 0.7827041800 -6.1831547789
N 2.4623598319 1.3587587627 -5.3290546165
Cl 1.5976596810 -1.0363442666 -6.1150807732
H 0.0948730442 2.3121105763 -5.6230867162
H -1.0749016646 -0.0318829291 -6.9379352858
H -1.8062090673 1.4258384886 -6.6609230769
H 1.5245532246 1.0181890234 -7.2479545784
H 3.3706810637 0.9722899319 -5.5842909223
H 2.5156070666 2.3607523025 -5.5220242743
C -5.7322806009 0.3425016099 0.6374825688
N -6.8479802822 0.5272975516 -0.2661641087
C -5.8487781560 1.3664203229 1.7901211242
N -4.9108200217 1.0773680352 2.8621653452
Cl -5.5190947093 3.0551366997 1.1806178203
H -5.8818387530 -0.6368501104 1.1156310688
H -6.7670813443 1.3695436086 -0.8290717470
H -7.0199601080 -0.2738988828 -0.8649932688
H -6.9030754608 1.3969370924 2.0824026119
H -4.9173286076 1.8423214458 3.5355303600
H -5.2424658219 0.2520556403 3.3656497618
