148
# extracted from Terachem optimization
Mn -0.0773353219 -0.1265076160 -0.0663824159
O 0.1332108802 1.9626791770 -0.1073962607
C 1.5182069161 2.3796331193 0.2948689413
N 1.6917438550 3.7199128078 -0.1273945650
C 0.8513918534 3.9101466147 -1.3315242597
C -0.3276515723 2.9234068947 -1.1067536059
H -1.2119871672 3.4193232482 -0.7019300812
H -0.5798237313 2.3822957099 -2.0179187604
H 1.4260129614 3.5824246164 -2.2041879189
H 1.4353045768 4.3875323722 0.5958592274
H 1.5822865333 2.2726339827 1.3776941132
O 2.0086127366 0.0472678327 -0.0784170994
C 2.4747083669 1.3996054792 -0.3904732495
C 3.8795301914 1.4262951931 0.1097302463
C 4.2400840850 0.2515527123 0.6532198731
C 3.0707138018 -0.7035276339 0.5797964871
H 2.7217859567 -1.0076288655 1.5724568451
H 3.2728550118 -1.5985088626 -0.0182728270
H 4.4920611885 2.3115673953 -0.0023142718
H 2.4048757463 1.5319570617 -1.4775462598
C 5.5174828963 -0.1470627842 1.2485378822
C 6.5778090732 0.7688570839 1.3912692694
C 7.7814621234 0.3840082954 1.9599961512
C 7.9877791881 -0.9371545845 2.4059532872
C 9.2932039951 -1.3303908979 2.9791022111
C 10.4691300661 -0.7767020632 2.6670649231
Cl 9.2583786652 -2.6515197472 4.1501005822
C 6.9274981510 -1.8474657808 2.2784070696
C 5.7205604633 -1.4603098146 1.7067542175
H 6.4561710729 1.7993420259 1.0712500512
H 8.5671152775 1.1211370936 2.0862984505
H 11.3938294179 -1.1032821060 3.1277661165
H 10.5312374664 0.0068412716 1.9189867495
H 7.0534221255 -2.8675201887 2.6228575218
H 4.9327399589 -2.2037870536 1.6160821956
C 0.4392100101 5.3500678607 -1.5404480416
C 0.8605610585 6.0486889013 -2.6765794019
C 0.4908510943 7.3765014655 -2.8744993762
C -0.3011632166 8.0536569626 -1.9320652631
C -0.6571222255 9.4753458871 -2.1448030474
C 0.1038371860 10.3729554843 -2.7766803476
Cl -2.2127718781 9.9856478067 -1.4818166715
C -0.7284547178 7.3469004503 -0.7954366870
C -0.3621107321 6.0188685596 -0.6038304895
H 1.4757122196 5.5513676702 -3.4225438014
H 0.8026749352 7.8865464199 -3.7798531186
H -0.2158740794 11.3994355402 -2.9116701775
H 1.0836571843 10.0986518548 -3.1543018447
H -1.3500055016 7.8436350474 -0.0589261266
H -0.7132239230 5.5084473293 0.2919364812
O -0.0826425977 -2.1907304492 0.1330551768
C 0.2463360293 -2.6618915751 1.5183791738
N -0.2341228709 -3.9925069605 1.6318840690
C -1.3572638198 -4.1415838202 0.6770078543
C -0.9822246849 -3.1660902158 -0.4670782405
H -0.4482248400 -3.6627775195 -1.2799533850
H -1.8483367563 -2.6372216285 -0.8619114671
H -2.2691147607 -3.7826831141 1.1676063664
H 0.4897897375 -4.6801008962 1.4378141635
H 1.3288323470 -2.6050450382 1.6328990717
O -0.0965297259 -0.3279192208 2.0524498342
C -0.4396347720 -1.6843360339 2.4783699438
C 0.0293334117 -1.7529784608 3.8933797738
C 0.5727875999 -0.5921098462 4.2964748027
C 0.5300306117 0.3940420257 3.1510964897
H 1.5323634155 0.7094749211 2.8397674959
H -0.0741406743 1.2830373083 3.3630890166
H -0.1059002957 -2.6517793595 4.4812216485
H -1.5264801602 -1.8004584044 2.3853554172
C 1.1419171397 -0.2302001180 5.5965926878
C 1.2589721479 -1.1740911971 6.6352060112
C 1.8046562093 -0.8233933034 7.8598293320
C 2.2520947838 0.4897927083 8.1092623715
C 2.8009008132 0.8464980253 9.4355004822
C 2.4621809198 0.2653141653 10.5905509667
Cl 3.9799518391 2.1609589378 9.4573913777
C 2.1499788654 1.4280416135 7.0708150838
C 1.6015049908 1.0751259723 5.8428378082
H 0.9371380472 -2.1993553873 6.4793516316
H 1.9117791374 -1.5813045268 8.6283984402
H 2.9060802641 0.5655650766 11.5322256053
H 1.7083084012 -0.5146452706 10.6177146745
H 2.4962304915 2.4426986610 7.2305831494
H 1.5296696102 1.8389689451 5.0727880108
C -1.5741439449 -5.5748722592 0.2471383347
C -2.7533071941 -6.2456583173 0.5889943752
C -2.9563763670 -7.5696213170 0.2090787864
C -1.9770811766 -8.2717540728 -0.5136219164
C -2.1973177545 -9.6897945948 -0.8798295527
C -2.9028628261 -10.5681976877 -0.1623223421
Cl -1.4363229929 -10.2231235015 -2.3813144373
C -0.7969943548 -7.5932931029 -0.8612026110
C -0.5995651866 -6.2690335799 -0.4841951866
H -3.5270487163 -5.7302588946 1.1531562363
H -3.8924212578 -8.0582020823 0.4584849023
H -3.0385710104 -11.5930661318 -0.4868616170
H -3.3426954547 -10.2798891362 0.7870639801
H -0.0307296480 -8.1090352795 -1.4289315179
H 0.3315400175 -5.7823362449 -0.7699967130
O -2.1709586570 -0.0205596349 -0.2679338782
C -2.6094461099 0.4144525893 -1.6218666609
N -4.0011266317 0.1020063797 -1.7346971141
C -4.3533573548 -0.8299551476 -0.6342036673
C -3.3528494576 -0.4372815860 0.4691378961
H -3.7066225167 0.3995150962 1.0780676508
H -3.0766456849 -1.2684323794 1.1181287054
H -4.1316719717 -1.8514147614 -0.9655208008
H -4.5784733672 0.9365529193 -1.6767540384
H -2.4330308865 1.4867733184 -1.7125671119
O -0.3392589001 -0.2173534808 -2.1764375870
C -1.7301910392 -0.3534231867 -2.6124282391
C -1.7088282335 0.1661985508 -4.0148007252
C -0.4515069465 0.3703383494 -4.4462658573
C 0.5102865109 0.0160917123 -3.3331737583
H 1.2067903133 0.8243944680 -3.0899831685
H 1.0881684973 -0.8938600396 -3.5371709840
H -2.6207212823 0.2719751642 -4.5891505411
H -2.0099832040 -1.4153696119 -2.5755290536
C 0.0272557589 0.8279186396 -5.7524767287
C -0.8550487694 1.3456814377 -6.7201647611
C -0.3873131924 1.7827983466 -7.9498610094
C 0.9824850062 1.7149252017 -8.2745594648
C 1.4527834836 2.1628057858 -9.6033810036
C 0.7347523099 2.1203781650 -10.7297994843
Cl 3.1062740399 2.7807165772 -9.6688412823
C 1.8647082495 1.2105412776 -7.3067006475
C 1.3950920831 0.7741177195 -6.0729694785
H -1.9148157911 1.4332290863 -6.4995869567
H -1.0858742835 2.2107553939 -8.6610159123
H 1.1332653216 2.4718993260 -11.6741099766
H -0.2681837361 1.7058763286 -10.7324125124
H 2.9244243488 1.1520153886 -7.5272227884
H 2.1119493109 0.3700306295 -5.3625688998
C -5.8092086275 -0.7548043368 -0.2353651378
C -6.6447666284 -1.8641425608 -0.4050061815
C -7.9861100561 -1.8097671712 -0.0365817284
C -8.5394102409 -0.6357258946 0.5015529222
C -9.9762213614 -0.5872979566 0.8574352452
C -10.9469080033 -1.2542390722 0.2274093708
Cl -10.3958928980 0.4587886431 2.2167043695
C -7.6968858567 0.4746694445 0.6765149756
C -6.3562867526 0.4157137448 0.3099572793
H -6.2444245786 -2.7851837384 -0.8219348400
H -8.6067105358 -2.6925607005 -0.1488494987
H -11.9821578190 -1.1878319843 0.5405086587
H -10.7226826768 -1.8673533159 -0.6396291126
H -8.0977515664 1.3881419726 1.1012377194
H -5.7390153227 1.2999407470 0.4584962257
