112
# extracted from Terachem optimization
Mn -0.0824375497 0.1122352024 -0.1709172129
O -0.0005389216 2.1699279910 -0.2054168866
C 1.1953202046 2.7339631271 0.4502433994
C 1.1821610057 4.2265136185 0.0702072496
C 0.2238331164 4.2648576145 -1.1091927371
C -0.3970481716 3.0952395442 -1.2125980095
H -1.1311488206 2.7292478440 -1.9062574931
H 2.1815207577 4.5829840603 -0.1985639025
H 0.8205947833 4.8473984367 0.8992522050
H 1.0730264216 2.5394098673 1.5169953460
O 2.0885726475 0.5649787877 -0.1509094525
C 2.4066833209 1.9880667406 -0.1015783415
S 3.8707231879 2.2830458552 0.9315397042
C 5.0296859117 1.4098993604 -0.2167457585
C 4.4371751093 0.0662568520 -0.5540326314
C 3.1467828297 -0.2735406981 -0.5012585723
H 5.9171052082 1.2554826131 0.4048954526
H 2.7822466610 -1.2652307196 -0.7337652221
H 5.1242186087 -0.7118719466 -0.8785260601
H 2.6191152338 2.3097972081 -1.1251045825
C 5.4467581726 2.1982061905 -1.5112757926
C 5.2204489298 3.7138453294 -1.4293487055
O 4.1263385360 4.1634836802 -1.7316023179
C 6.3663164351 4.5812629336 -0.9780936757
H 6.4957182324 1.9655425891 -1.7243094808
H 4.8478662033 1.8451066134 -2.3544051365
H 6.7713572646 4.2202213604 -0.0238926999
H 7.1845896409 4.5243952358 -1.7078331602
H 6.0429758156 5.6183580593 -0.8756495791
C 0.0791438646 5.4948439661 -1.9531364205
C -1.0064803277 5.4680210278 -3.0331090950
O -1.6678490429 4.4704037875 -3.2586825951
C -1.2076256407 6.7586442954 -3.7951006852
H -0.0976353305 6.3688675423 -1.3075602345
H 1.0403635935 5.7139963799 -2.4442539884
H -1.6476007374 7.5165768099 -3.1338615944
H -0.2539345951 7.1635572627 -4.1528699564
H -1.8800419691 6.5901218684 -4.6378136842
O 0.4267412403 -1.8653196282 0.0340050106
C 0.8822749201 -2.2212769029 1.4011264760
C 0.7714220913 -3.7598015480 1.4813465790
C 0.3063351793 -4.1542057115 0.0894764157
C 0.1157503494 -3.0673545275 -0.6496302961
H -0.1883828003 -2.9448303250 -1.6739222067
H 0.0595668474 -4.0724412144 2.2557212042
H 1.7387354312 -4.2116843242 1.7281002679
H 1.9101514075 -1.8565234723 1.4724701621
O -0.1330523328 -0.0969507674 1.9490532441
C -0.0076287221 -1.4882068851 2.3888041804
S 0.6775897639 -1.5597489774 4.0643480252
C -0.8210678065 -0.7993481032 4.8494900465
C -1.1985805721 0.4352382341 4.0708944507
C -0.8820204590 0.7203682827 2.8067351055
H -0.4430245983 -0.4892348837 5.8288651219
H -1.1645520074 1.6392384900 2.3073978359
H -1.8096197686 1.1725248544 4.5866101234
H -1.0103618834 -1.9260011098 2.3950304345
C -2.0630929006 -1.7402269774 5.0594916610
C -1.7501334045 -3.2402408425 5.0074521319
O -1.6961345464 -3.8023958850 3.9249903106
C -1.5310679750 -3.9669245379 6.3099001857
H -2.5200315658 -1.4729821299 6.0187319369
H -2.8049152415 -1.5570233528 4.2778691246
H -0.7555342633 -3.4669318663 6.9047827940
H -2.4493842859 -3.9431157268 6.9111689892
H -1.2455340623 -5.0037542333 6.1248357357
C 0.0988557908 -5.5897833129 -0.2914136032
C -0.0785415857 -5.8909435856 -1.7835641206
O -0.1348490260 -5.0063948783 -2.6198355282
C -0.1676070448 -7.3542917280 -2.1527655371
H 0.9343284044 -6.1995208226 0.0841675404
H -0.7818856017 -5.9907071988 0.2350781034
H 0.8103367428 -7.8332183479 -2.0130409779
H -0.8777368704 -7.8870413618 -1.5100744327
H -0.4642013560 -7.4548508784 -3.1980324933
O -2.1084006023 -0.0040967457 -0.3326023729
C -2.6750485275 0.1749090429 -1.6874903100
C -4.0655043320 -0.4966753584 -1.6415921186
C -4.2128622745 -0.8998299853 -0.1838704306
C -3.0936145825 -0.6223287745 0.4742615096
H -2.8171371860 -0.7429239602 1.5059552626
H -4.1203419384 -1.3664672639 -2.3083803638
H -4.8477928839 0.2040130733 -1.9529797867
H -2.7378637315 1.2543460454 -1.8439264091
O -0.3519698708 -0.0174658357 -2.3084279387
C -1.7039109970 -0.4630823733 -2.6632928608
S -2.1050252033 -0.0291250590 -4.3767848598
C -0.8434665773 -1.1720224195 -5.1087763944
C 0.4686625434 -0.9478052219 -4.4024597770
C 0.6542937320 -0.4236382470 -3.1900342294
H -0.7483670786 -0.7871207664 -6.1288840080
H 1.6329099216 -0.2389565759 -2.7650937900
H 1.3695047500 -1.2325183682 -4.9411738695
H -1.7280382718 -1.5513338894 -2.5631659282
C -1.2174115783 -2.7010123413 -5.1882243632
C -2.6813769098 -3.0261975517 -4.8707706190
O -3.0485877441 -3.0711735041 -3.7062307460
C -3.6140676661 -3.2870710705 -6.0249617763
H -0.9511234065 -3.0576722417 -6.1882804313
H -0.6206273151 -3.2645866695 -4.4657643366
H -3.5999849437 -2.4401470991 -6.7233742233
H -3.2748321200 -4.1641464051 -6.5912520136
H -4.6308534893 -3.4548269994 -5.6661250087
C -5.4760557813 -1.5250453621 0.3280810705
C -5.5632101135 -1.7810519396 1.8349602456
O -4.6062657321 -1.6187202957 2.5721251071
C -6.9072067882 -2.2412805434 2.3505199653
H -6.3412056810 -0.9139173252 0.0296192209
H -5.6432089339 -2.4893694689 -0.1785501727
H -7.6169552991 -1.4038198694 2.3247218555
H -7.3295826104 -3.0358708486 1.7251098028
H -6.8104724514 -2.5889254555 3.3803885701
