88
# extracted from Terachem optimization
Mn 0.1656858440 0.1568891349 -0.0224639495
O 0.3403920956 2.1132756398 0.3154174150
C 1.7431884757 2.5503102946 0.4895550442
S 1.7812419219 4.3586009335 0.1486316616
C 0.0491967313 4.4058947606 0.5593191209
C -0.5308133740 3.2048621487 0.6108786362
H -1.5505539298 2.9121251864 0.8138067932
H 1.9995310664 2.3465036137 1.5357479649
O 2.1458127109 0.3283736082 -0.3275314941
C 2.6190004968 1.7411636195 -0.4525851510
C 4.0719156084 1.8467279720 -0.0944718710
C 4.9090905126 0.8181485626 -0.3115405958
C 4.3617327143 -0.4275968388 -0.8518497836
C 3.0449510813 -0.6498241299 -0.8364718936
H 4.4518187602 2.7784396492 0.3202011897
H 2.5277338087 -1.5530228680 -1.1320255483
H 5.0098797162 -1.2052235693 -1.2415679645
H 2.4249452542 2.0319109270 -1.4956988195
C 6.3850417618 1.0085565814 0.0486273675
O 6.6791530322 1.9955282724 0.6887849756
C 7.3895421035 -0.0175333471 -0.4092048953
H 7.1774946508 -0.9968665104 0.0393649755
H 7.3613338042 -0.1359495159 -1.4998949203
H 8.3881341220 0.3018393611 -0.1081787746
C -0.5428798330 5.7923297715 0.6845780895
O 0.1990839584 6.7070099142 0.3962590914
C -1.9672530238 5.9551304639 1.1445224626
H -2.6528848665 5.3074604034 0.5858027720
H -2.0497548051 5.7012886606 2.2090788236
H -2.2626444384 6.9972892854 1.0103730265
O 0.2289985932 -1.9400584228 0.1430043025
C 0.9694776437 -2.3791569209 1.3423040636
S 1.0248168651 -4.2129805705 1.3027033327
C -0.3356832458 -4.1946479238 0.1615793079
C -0.6085404914 -2.9806873557 -0.3252089829
H -1.3249647428 -2.6714459969 -1.0711639462
H 1.9684498105 -1.9505342858 1.2577907935
O 0.1649734098 -0.3645010935 2.3616145924
C 0.2528323432 -1.8142569392 2.5868793547
C 0.9617079117 -2.1472637988 3.8618751681
C 1.0141454145 -1.2596894207 4.8822332392
C 0.4552172415 0.0678639708 4.6998453140
C 0.0937999443 0.4644979682 3.4660628721
H 1.3959160371 -3.1368365497 3.9740504516
H -0.2575610382 1.4538138669 3.2005430936
H 0.3624615503 0.7654377481 5.5241041418
H -0.7805412746 -2.1987765584 2.5944423243
C 1.7374154280 -1.6885112686 6.1546949527
O 2.5530483920 -2.5813377597 6.0396690696
C 1.4349304885 -1.0022121264 7.4596164113
H 1.8253681253 0.0243129912 7.4414201920
H 0.3544147382 -0.9503502224 7.6376247405
H 1.9200209385 -1.5443149831 8.2727471908
C -0.9113193518 -5.5536758285 -0.1565140656
O -0.3971269664 -6.4904462369 0.4184170793
C -2.0270546094 -5.6724848038 -1.1611983939
H -2.8308848103 -4.9541558679 -0.9625480571
H -1.6418828122 -5.4853426967 -2.1719056487
H -2.4276618585 -6.6871834397 -1.1258634696
O -1.9362438766 0.2362493515 -0.2130659622
C -2.3631926361 0.9771582359 -1.4137678136
S -4.1948374208 1.0788289001 -1.3668078103
C -4.2076825172 -0.2563212674 -0.1958636838
C -2.9978455279 -0.5558720517 0.2845607752
H -2.7019935642 -1.2692358203 1.0388827596
H -1.9096044241 1.9660974288 -1.3427411002
O -0.3597731123 0.1627662415 -2.4472726472
C -1.8117245652 0.2476829057 -2.6604953158
C -2.1668151772 0.9425696212 -3.9357969815
C -1.2785824266 1.0542667279 -4.9521394148
C 0.0747303826 0.5671470172 -4.7706204065
C 0.4771373422 0.1835800913 -3.5438200421
H -3.1764403451 1.3273568359 -4.0498791375
H 1.4809179429 -0.1271708081 -3.2813373861
H 0.7857982532 0.5397699745 -5.5881431105
H -2.1951095703 -0.7857941861 -2.6510952313
C -1.7442770742 1.7750672909 -6.2149039325
O -2.6780433729 2.5401346450 -6.0809837431
C -1.0453082567 1.5304622525 -7.5242264055
H -0.0370696794 1.9655078419 -7.4985486015
H -0.9452570302 0.4568880123 -7.7231230986
H -1.6090178067 2.0063517743 -8.3281091653
C -5.5813612861 -0.7834886476 0.1423037205
O -6.5056727769 -0.2519957418 -0.4372613700
C -5.7269364043 -1.8760737667 1.1685028248
H -5.0392011596 -2.7076644924 0.9761465083
H -5.5146873246 -1.4800893141 2.1700346771
H -6.7551403430 -2.2419431000 1.1513972408
