124
# extracted from Terachem optimization
Mn 0.6118490799 0.2417406575 0.2655939115
O 1.3093530648 2.2994017221 0.0932564511
C 2.6420504702 2.6053036639 0.6511553435
C 2.9953247948 3.9960036298 0.0914049909
C 2.0264843488 4.1478074595 -1.0682316705
C 1.1186619255 3.1840722956 -0.9985226768
H 0.2618137691 2.9564638523 -1.6135959129
H 4.0403612556 4.0368239794 -0.2310113988
H 2.8508073610 4.7775858200 0.8471897852
H 2.5331721550 2.5719888100 1.7365949400
O 2.8809782114 0.2336898537 0.3494162221
C 3.5817259231 1.4985395918 0.1745510921
S 5.1374018059 1.5558418628 1.1135241220
C 5.9786568030 0.1583438927 0.2312901721
C 4.9933162901 -0.9510296952 0.0163373296
C 3.6651510007 -0.9102423332 0.1242958772
H 6.7067441776 -0.1936058726 0.9714156574
H 3.0293403387 -1.7837679163 0.0537771083
H 5.4055823386 -1.9340548917 -0.1890141373
H 3.7933259250 1.5883860013 -0.8950849255
C 6.8544619940 0.6355241688 -1.0074071142
N 7.9771415079 1.3553094303 -0.4191025988
N 6.1883044790 1.4272966438 -2.0269536885
C 7.5193169132 -0.5836798373 -1.6916587330
Cl 6.4256154874 -1.5322007291 -2.7947891795
H 7.6568216358 2.0975486397 0.2020290550
H 8.5082525834 1.8054216544 -1.1633910762
H 5.8133783046 2.3011759378 -1.6711403315
H 5.4906491530 0.9170221792 -2.5608683530
H 8.3274146156 -0.2242319326 -2.3280641411
H 7.9223582018 -1.2773975100 -0.9537959435
C 2.1095808768 5.2370527669 -2.1372237618
N 3.4977200849 5.2489216402 -2.6239621428
N 1.2750878983 5.0019983751 -3.3007068081
C 1.7339888746 6.6173665203 -1.5500181648
Cl 0.0542474981 6.6759722787 -0.8597850173
H 3.5125937396 5.7451015654 -3.5146286733
H 4.1176212118 5.7471368773 -1.9861317798
H 1.4124750015 4.0671513539 -3.6762243188
H 0.2901172086 5.1502179257 -3.0984133470
H 2.4131053825 6.8977427741 -0.7422007584
H 1.7762367713 7.3639034454 -2.3443474500
O 0.5140631626 -1.7466883134 1.1152271835
C 0.7586598551 -1.7887571066 2.5744535572
C 0.1753549485 -3.1422448469 3.0391002242
C -0.6453314133 -3.5937661979 1.8442900223
C -0.3811242958 -2.8056888718 0.8111743739
H -0.7225195892 -2.8277403408 -0.2107513906
H -0.4205893845 -3.0207639249 3.9508864811
H 0.9699778890 -3.8616078875 3.2661550313
H 1.8414094575 -1.7117367218 2.6902054039
O 0.2833753833 0.5838003306 2.4068885773
C 0.0681732836 -0.5873865331 3.2301179603
S 0.7478889266 -0.3641724963 4.9088401773
C -0.2703719570 1.1090792526 5.4020269075
C -0.4469587211 2.0250885464 4.2286215085
C -0.1693419097 1.8000969863 2.9455830011
H 0.3823015946 1.6172306539 6.1219094394
H -0.2598092065 2.5502991741 2.1701763911
H -0.8048869434 3.0256887166 4.4492308213
H -1.0156468246 -0.7320423420 3.2901044561
C -1.5682936853 0.7156007344 6.2266799397
N -1.0697991182 0.1953925974 7.4933612181
N -2.4849028147 -0.2161800772 5.5886932346
C -2.3554750385 1.9853335371 6.6339989878
Cl -3.3981049366 2.6928324682 5.3249381162
H -0.4229657719 -0.5788950959 7.3460678094
H -1.8526858106 -0.1789304629 8.0278786330
H -2.0358440803 -1.1040858095 5.3840001302
H -2.9409349372 0.1629406101 4.7625654215
H -3.0399952415 1.7209781004 7.4395509062
H -1.6814380944 2.7692893204 6.9796582567
C -1.6832909716 -4.7116787164 1.8736361794
N -2.8899777893 -4.3266101745 2.5977243125
N -2.1125319255 -4.9785379217 0.4949392243
C -1.1356231248 -5.9667720199 2.5934931735
Cl 0.3483536073 -6.6119713662 1.7888758464
H -3.3141055510 -3.4906362065 2.1873673969
H -2.7209599923 -4.1719446171 3.5881005456
H -2.9195880445 -5.6015231500 0.5490771382
H -1.3762989885 -5.4864875195 0.0021984635
H -0.8671586588 -5.7577332777 3.6322581283
H -1.8938281688 -6.7503565894 2.5746437333
O -1.4491031249 0.0919035608 -0.4141150055
C -1.8364608444 0.3741744774 -1.8066702637
C -3.1954878752 -0.3353535219 -2.0194942328
C -3.5056198963 -0.9108697257 -0.6489029767
C -2.5194423392 -0.6116879218 0.1850815027
H -2.3769782012 -0.8318346960 1.2290454342
H -3.1303588727 -1.1164626419 -2.7886374283
H -3.9592669275 0.3774470904 -2.3452955606
H -1.9272764837 1.4618551951 -1.8712225849
O 0.5513316189 0.0877787196 -2.0208192666
C -0.7085126553 -0.1206944729 -2.7106247194
S -0.7779852620 0.7846586204 -4.2892073609
C 0.6293940111 -0.0896828215 -5.1258355035
C 1.7158977198 -0.3505462379 -4.1262015769
C 1.6797296216 -0.2257925611 -2.7993511671
H 0.9996783572 0.6648694330 -5.8296447990
H 2.5470340445 -0.3679763013 -2.1682745685
H 2.6836524902 -0.6307896945 -4.5304937901
H -0.7769541590 -1.1960709584 -2.9015863689
C 0.1470375060 -1.3000314016 -6.0351646276
N -0.6058296054 -0.6812190443 -7.1188843977
N -0.6213917446 -2.3433206698 -5.3754783585
C 1.3557016227 -1.9516003681 -6.7506515749
Cl 2.3304878758 -3.0905863650 -5.7258872550
H -1.3812254715 -0.1267762210 -6.7570867567
H -1.0193344800 -1.4135032651 -7.6947801484
H -1.4827627085 -1.9847354692 -4.9737679555
H -0.0889206067 -2.8750895813 -4.6914258453
H 0.9807359426 -2.5562389756 -7.5761430225
H 2.0350527730 -1.1935727430 -7.1409620715
C -4.6927315276 -1.8147661158 -0.3284566330
N -4.5407524874 -3.1540371197 -0.8888623982
N -4.7502276321 -1.9952067818 1.1286494034
C -6.0050663669 -1.2532277484 -0.9221750591
Cl -6.3638032373 0.4088217524 -0.3087917689
H -3.6768995243 -3.5934437489 -0.5615875202
H -4.5575037472 -3.1576697671 -1.9053973952
H -5.4275623208 -2.7378149174 1.3089503610
H -5.1165285740 -1.1457458095 1.5614209938
H -5.9649826945 -1.1877199757 -2.0126126021
H -6.8355056922 -1.9004473549 -0.6380806072
