169
# extracted from Terachem optimization
Mn 0.0678906694 0.0593124524 -0.0364165962
O 0.3194178276 2.2257276948 -0.0253968375
C 1.5912355276 2.5676786288 0.5897457479
S 1.8234210552 4.3570733372 0.3951116207
C 0.9453420078 4.2622251166 -1.2295017192
C -0.1466311560 3.2145181586 -1.0097703716
H -1.0548671930 3.6563504671 -0.5987467095
H -0.3630528273 2.6560692087 -1.9233624961
H 1.6634226935 3.9154285491 -1.9782001487
H 1.5205155911 2.3137874261 1.6504697477
O 2.2311383431 0.3220090109 0.0113317568
C 2.7068257997 1.7252180444 -0.0422224147
N 3.9011592800 1.8198922914 0.7351000633
C 5.0440763235 1.0276972485 0.2490181367
C 4.5363654799 -0.3601682545 -0.0299980961
C 3.2385202317 -0.6457416358 -0.1009642587
H 5.7377279122 0.9666485965 1.0942606075
H 4.1461416049 2.7908081149 0.9072845872
H 2.8176794817 -1.6345729194 -0.2460444350
H 5.2507851046 -1.1664273501 -0.1549951394
H 2.8276174613 1.9363295852 -1.1118446888
C 5.8257789260 1.6358250152 -0.9784703949
O 4.9309668196 1.6732021970 -2.1041757338
C 6.2168264707 3.0964451421 -0.7202415353
C 7.0774506213 0.8067168161 -1.2971423426
C 7.3997326413 0.5049435489 -2.6277227986
C 8.5447461592 -0.2233850761 -2.9502791499
C 9.3919928272 -0.6553477618 -1.9313431778
Cl 10.8243430341 -1.5765352858 -2.3226076245
C 9.1088660549 -0.3482972326 -0.5996773022
C 7.9611862931 0.3804241369 -0.2927302584
H 4.8667253639 0.7643024018 -2.4429859458
H 6.8417739163 3.1832859822 0.1744807272
H 6.7888709217 3.4725734189 -1.5717656878
H 5.3337908125 3.7346170637 -0.6056413489
H 6.7691604808 0.8685339019 -3.4327788626
H 8.7828413194 -0.4446851756 -3.9851912706
H 9.7827859164 -0.6708893075 0.1866752706
H 7.7814047760 0.6247441381 0.7505579636
C 0.4616832525 5.6757747701 -1.6854914725
O 1.6512426389 6.4503863036 -1.5133750055
C 0.1112467255 5.6197628076 -3.1848535861
C -0.6838382525 6.2418643520 -0.8327480393
C -2.0329219679 6.0312731378 -1.1606431138
C -3.0603495451 6.5531567145 -0.3747557105
C -2.7422133108 7.3036883409 0.7574859015
Cl -4.0238313495 7.9583043350 1.7494321975
C -1.4107779086 7.5406616542 1.0987310464
C -0.3950686147 7.0092676346 0.3053686251
H 1.4610096711 7.3677402821 -1.7745982387
H -0.6873800048 4.9065331302 -3.4152010807
H -0.2208153111 6.6046816931 -3.5284864911
H 1.0019297206 5.3382629366 -3.7541286484
H -2.3054818671 5.4710296043 -2.0501016567
H -4.0984611712 6.3936743221 -0.6462238309
H -1.1716553590 8.1392815387 1.9711871243
H 0.6377396612 7.2070883785 0.5686607052
O 0.1499947837 -2.1282201788 0.3319797889
C 0.3835513157 -2.4029195744 1.7428929542
S 0.1984613834 -4.2053182452 2.0053312220
C -0.8108657297 -4.3222297309 0.4592196839
C -0.1128668420 -3.3290178088 -0.4564702920
H 0.8392464998 -3.7264468154 -0.8136676120
H -0.7281329676 -3.0205649837 -1.3025181995
H -1.8263233436 -3.9815525449 0.6865953338
H 1.3990108397 -2.0918141556 2.0043473102
O -0.4350033672 -0.1744248037 2.0784290476
C -0.6173651118 -1.5653547928 2.5444326696
N -0.3210989230 -1.6277367866 3.9403868881
C -1.1478604495 -0.7812480984 4.8161912215
C -1.1104037295 0.6110468719 4.2503071090
C -0.7738935709 0.8400891702 2.9843114384
H -0.6392669441 -0.7764795047 5.7840439498
H -0.2932879134 -2.5940586764 4.2538382800
H -0.7190798237 1.8137767947 2.5109074381
H -1.3726604570 1.4527493080 4.8818957409
H -1.6468808997 -1.8295416196 2.2673958697
C -2.6374997832 -1.2566881235 5.0472436082
O -3.3669771665 -1.0448721895 3.8185500971
C -2.7202839170 -2.7628665049 5.3165011369
C -3.2754036693 -0.4780249758 6.2066834546
C -4.5651674552 0.0557254630 6.0822015222
C -5.1730322163 0.7403501903 7.1344228168
C -4.4888556227 0.8925530931 8.3394329881
Cl -5.2383021932 1.7526375694 9.6615729072
C -3.2124324214 0.3512066612 8.4994466856
C -2.6183317288 -0.3297987084 7.4390386274
H -3.4556815290 -0.0820154639 3.7133721889
H -2.1189975907 -3.0366835739 6.1892628813
H -3.7577925958 -3.0360372918 5.5239021889
H -2.3835131907 -3.3461314944 4.4525994891
H -5.1225149613 -0.0910120799 5.1630707544
H -6.1739483846 1.1439521575 7.0248331754
H -2.6928962605 0.4566622626 9.4456842094
H -1.6351359942 -0.7616059034 7.6035199961
C -0.9144750451 -5.7886858458 -0.0617737395
O -1.2150761418 -6.5117549077 1.1338084490
C -2.1121705904 -5.8788405753 -1.0279675384
C 0.3892598394 -6.2969220184 -0.6939108246
C 0.6572461197 -6.1442854769 -2.0641827239
C 1.8507953517 -6.6046519210 -2.6198448250
C 2.7948703377 -7.2279576117 -1.8026984756
Cl 4.2937246460 -7.8006288212 -2.4958062718
C 2.5481538872 -7.4005451672 -0.4410962902
C 1.3510109852 -6.9352204075 0.1022310533
H -1.3247903209 -7.4505701595 0.9045422095
H -2.0215186047 -5.2045114670 -1.8856657398
H -2.2035109680 -6.8975577131 -1.4185788952
H -3.0304793439 -5.6351025820 -0.4853773688
H -0.0666455821 -5.6710601058 -2.7215788075
H 2.0428713764 -6.4989467271 -3.6825370740
H 3.2801678556 -7.8987956156 0.1854358776
H 1.1562685647 -7.0819074114 1.1587599138
O -2.1648478682 0.1405327326 -0.5233408755
C -2.4912853070 0.3320355172 -1.9163143692
S -4.2179254918 -0.2489655174 -2.1877319551
C -4.2540290292 -1.0076826482 -0.5001313337
C -3.3465483138 -0.0822507815 0.2962487701
H -3.8284009692 0.8782022689 0.4956820017
H -2.9905267175 -0.5232635575 1.2273751198
H -3.8050160105 -2.0035092352 -0.5686710503
H -2.4190919633 1.3931552172 -2.1732776505
O -0.1458222681 -0.0272098359 -2.2585327690
C -1.4769484806 -0.4708084046 -2.7253304250
N -1.5789451910 -0.2026779010 -4.1235786464
C -0.6319044258 -0.9466744364 -4.9697535057
C 0.7370284581 -0.7495592957 -4.3772420474
C 0.9113034479 -0.3160162047 -3.1306187795
H -0.6551233946 -0.4543989634 -5.9465863457
H -2.5389740795 -0.2984221457 -4.4421332035
H 1.8679699057 -0.1182673818 -2.6602956527
H 1.6111862207 -0.9572903133 -4.9848870174
H -1.5342333596 -1.5301495220 -2.4506923722
C -0.9398390214 -2.4823980987 -5.2039704615
O -0.6901319699 -3.1948899950 -3.9753236824
C -2.4206632675 -2.7239112449 -5.5141529957
C -0.0591744111 -3.0115177320 -6.3451488306
C 0.7544180465 -4.1387030362 -6.1754426950
C 1.5513882428 -4.6237559049 -7.2132606109
C 1.5350158985 -3.9801701864 -8.4490591337
Cl 2.5338455440 -4.5743709682 -9.7523012847
C 0.7169613899 -2.8676484764 -8.6540209543
C -0.0713003766 -2.3950770786 -7.6074315271
H 0.2706037716 -3.1674518543 -3.8256511472
H -2.7380285608 -2.1582855117 -6.3959142835
H -2.5782680109 -3.7853355840 -5.7215256177
H -3.0551595343 -2.4488156152 -4.6650343777
H 0.7543998291 -4.6749003625 -5.2319415775
H 2.1726088901 -5.5011171906 -7.0677971450
H 0.6934973748 -2.3821247396 -9.6236179728
H -0.7143312425 -1.5406647161 -7.8015172041
C -5.7138548356 -1.1872754536 0.0132355724
O -6.3522133678 -1.7881968810 -1.1184099387
C -5.7076423340 -2.1994529065 1.1752423290
C -6.3949736361 0.1352660159 0.3888962611
C -6.3036061451 0.6688305925 1.6846976748
C -6.9255487995 1.8709636958 2.0190076731
C -7.6587906159 2.5555694220 1.0487010377
Cl -8.4411929214 4.0628355044 1.4598105311
C -7.7751487011 2.0424025536 -0.2427496484
C -7.1432416737 0.8415375995 -0.5637438416
H -7.2892542413 -1.9308737960 -0.9004841638
H -5.0717766954 -1.9004856969 2.0141821259
H -6.7244772084 -2.3317025732 1.5591012721
H -5.3562726831 -3.1660827452 0.8008956921
H -5.7581769310 0.1381467534 2.4603319651
H -6.8571852650 2.2688019904 3.0259735664
H -8.3582958597 2.5732577073 -0.9876232846
H -7.2444399206 0.4445319413 -1.5674623762
