124
# extracted from Terachem optimization
Mn 0.7253034161 0.3228592835 0.1436906214
O 0.7807576326 2.3630699890 -0.0080683908
C 1.9672838300 3.0190244562 0.5882340672
C 2.0214725387 4.4094607807 -0.0673370942
C 0.6285817879 4.5573904149 -0.6613030300
C 0.0135118121 3.3828409633 -0.6197157500
H -0.9678419639 3.0630861489 -0.9337204236
H 2.7799707262 4.4735473792 -0.8580773896
H 2.2583406230 5.1744847495 0.6788953316
H 1.7661001278 3.0792009219 1.6624362168
O 2.7088487969 0.7675020321 0.7609016141
C 3.1400510954 2.0938529646 0.3267778899
S 4.6192456335 2.6576893699 1.2190544717
C 5.7507526145 1.2987119296 0.6581249291
C 5.0190942897 -0.0089823709 0.6921025347
C 3.7056577927 -0.2190625010 0.7774690121
H 6.5062048768 1.2688461002 1.4519605567
H 3.2621464272 -1.2028154167 0.8670718374
H 5.6296725337 -0.9064772098 0.7060079178
H 3.3531387211 2.0137066324 -0.7431879515
C 6.5577115508 1.6615444405 -0.6625283151
N 7.5229639243 2.6711858372 -0.2486644140
N 5.7875578380 2.1045437451 -1.8116579554
C 7.4419659273 0.4669347917 -1.0967791264
Cl 6.5592545214 -0.8579046844 -1.9854276903
H 7.0687358099 3.4490273768 0.2286570159
H 7.9795719990 3.0572657551 -1.0738680509
H 5.2833657765 2.9678467697 -1.6342466565
H 5.1789967957 1.3950757054 -2.2099304106
H 8.1927448816 0.8296905889 -1.7978927044
H 7.9377245879 0.0084653885 -0.2411224378
C 0.0690388023 5.8566501880 -1.2417030216
N 1.1168576031 6.4318313675 -2.0912533542
N -1.0913150040 5.6948071822 -2.0934219755
C -0.3088903585 6.8394690619 -0.1067732764
Cl -1.5695222925 6.1902996703 1.0335245428
H 0.7031534322 7.1785355007 -2.6481298980
H 1.8779714608 6.8335459380 -1.5455650883
H -0.9178324407 5.0300811040 -2.8424465473
H -1.9276735615 5.4421791352 -1.5749689734
H 0.5608810598 7.0910439646 0.5032819247
H -0.7249251690 7.7445234975 -0.5511355871
O 0.7023291195 -1.6411266689 0.8697302182
C 0.8031011274 -1.8227696304 2.3375513716
C 0.2880094615 -3.2534037321 2.6081084833
C -0.2718830492 -3.6878975646 1.2634513732
C 0.0225742951 -2.7708494559 0.3553693324
H -0.1540186949 -2.7287270595 -0.7063043867
H -0.4632016202 -3.2564363514 3.4068732035
H 1.1011635023 -3.9153357841 2.9249208075
H 1.8594204495 -1.6910142899 2.5778449576
O 0.0170060602 0.4518075736 2.1924126818
C -0.0277697145 -0.7308377803 3.0174527342
S 0.6416600991 -0.4168540450 4.6831856330
C -0.5894986407 0.8765462886 5.1948936723
C -0.9673686446 1.7242799979 4.0163640949
C -0.6580840036 1.5568726460 2.7306669558
H -0.0032946380 1.5099338334 5.8720184549
H -0.9092768777 2.2672575341 1.9549311480
H -1.5173451988 2.6334628516 4.2376320397
H -1.0844313977 -1.0082553413 3.0952980166
C -1.7554562158 0.2845809781 6.0923402288
N -1.1126745051 -0.0729873486 7.3523981280
N -2.5039143625 -0.8306089413 5.5385127749
C -2.7502333844 1.4001304963 6.4960024754
Cl -3.9552054348 1.8557822302 5.2133828917
H -0.3261504886 -0.7038812246 7.2002445419
H -1.7816257893 -0.5820700934 7.9290264638
H -1.9005894071 -1.6127622443 5.3000562397
H -3.1017856416 -0.5747422189 4.7567028645
H -3.3442164980 1.0454323541 7.3380914598
H -2.2220898415 2.3074295743 6.7902408137
C -1.0843157457 -4.9631489079 1.0079692448
N -2.3961095144 -4.7568747799 1.6557874497
N -1.3790804003 -5.2461653205 -0.3781379610
C -0.3704264729 -6.1904734690 1.6140581771
Cl 1.2994622453 -6.4299877688 0.9435555515
H -2.3280903134 -4.8120620174 2.6719631266
H -3.0140833420 -5.5113588966 1.3538511891
H -1.9184612557 -4.5151698809 -0.8461040990
H -0.5483949759 -5.4917604650 -0.9083113087
H -0.2609148790 -6.0949665925 2.6968588376
H -0.9419451184 -7.0888338155 1.3783271388
O -1.1776670165 0.1574932860 -0.6698266643
C -1.2203458178 0.2464066104 -2.1442209642
C -2.5114379841 -0.4951038515 -2.5584428487
C -2.9638510930 -1.1606213930 -1.2696328018
C -2.2097065876 -0.7271614439 -0.2710074957
H -2.2494538090 -0.9029181012 0.7915937555
H -2.3152378699 -1.2061277894 -3.3696543490
H -3.2700682342 0.2062275484 -2.9226363189
H -1.2417295221 1.3127577648 -2.3747044124
O 1.1776752448 -0.0501318685 -1.8735735515
C 0.0440052863 -0.3811553186 -2.7282387762
S 0.2460128906 0.2219679049 -4.4317042901
C 1.7861062858 -0.7160418692 -4.8435988348
C 2.6647926027 -0.8483503962 -3.6353348467
C 2.4098219584 -0.5138987578 -2.3704663924
H 2.3074155013 -0.0307238370 -5.5248894286
H 3.1469793340 -0.5771819829 -1.5813354223
H 3.6752032153 -1.2052231142 -3.8094881055
H -0.0157098347 -1.4750091226 -2.7326361338
C 1.4582787763 -2.0148627491 -5.7050267100
N 0.8823140435 -1.4840997608 -6.9370343069
N 0.4718144909 -2.9165719894 -5.1628400098
C 2.7350779485 -2.8257269046 -6.0298566376
Cl 3.4044331366 -3.8156172976 -4.6510036396
H 0.4752720531 -2.2445864215 -7.4783615659
H 1.5707620934 -1.0072290021 -7.5168800028
H -0.4124855760 -2.4465636022 -4.9949861250
H 0.7979951414 -3.4243801133 -4.3472069456
H 2.4883172950 -3.5471106871 -6.8084064217
H 3.5442215086 -2.1772343151 -6.3742572270
C -4.0971812020 -2.1868539640 -1.1656485282
N -3.6337854321 -3.3899219859 -1.8890967490
N -4.4190430120 -2.6364354139 0.1678587164
C -5.3841989406 -1.6308303110 -1.8156496805
Cl -5.9410063312 -0.0806108736 -1.0546291647
H -3.6322500514 -3.2425092661 -2.8982496417
H -4.2971930647 -4.1415047727 -1.6957005283
H -3.6426470584 -3.0826958992 0.6591127722
H -4.8550257993 -1.9130264687 0.7317038602
H -5.2347730217 -1.4211760268 -2.8772856793
H -6.1887626126 -2.3567960847 -1.6924564744
