97
# extracted from Terachem optimization
Mn 0.0382355208 0.0863266383 -0.0536155330
O 0.3999295209 2.3057292486 -0.0408817988
C 1.7883881188 2.6388475498 0.2762129143
S 2.0525655774 4.3737393650 -0.2736417378
C 0.2839356726 4.6250685844 -0.1296216135
C -0.3868493561 3.4774739177 -0.0421470630
H -1.4537884149 3.3111097123 0.0054876650
H 1.8972313776 2.5618302460 1.3646372760
O 2.2035982965 0.2915486966 -0.0243114014
C 2.6753112992 1.6181868247 -0.4307173341
C 4.1190435693 1.6232326558 -0.0294638471
C 4.4750472346 0.4683308958 0.5363705034
C 3.2997230907 -0.4751756131 0.5830786447
H 3.0076795543 -0.7585943002 1.6007864179
H 3.4429931060 -1.3851720873 -0.0052218724
H 4.7705201059 2.4705651971 -0.2097905639
H 2.5223339528 1.7089332220 -1.5138217863
C 5.8650171730 0.1184368485 1.0839054585
N 6.8795538053 1.1318203342 1.0055375810
C 6.3855653271 -1.1157919717 0.3160869216
O 7.0870380245 -1.0834083232 -0.6370975355
Cl 5.7526256132 -2.6831195293 0.9835298777
H 5.7461197963 -0.1784514624 2.1328731847
H 7.1327995207 1.3883899886 0.0570218621
H 6.6935207335 1.9484903301 1.5768442059
C -0.2673788997 6.0450410455 -0.1449385553
N 0.3767083401 6.9571140379 -1.0537728476
C -0.1262765560 6.6171211474 1.2816980806
O 0.7112172710 7.3856279022 1.6227172589
Cl -1.3392610177 5.9496935792 2.4346123443
H -1.3384510714 5.9823996080 -0.3704080597
H 1.2421005336 7.3470257281 -0.6936266614
H 0.4849875896 6.6005739030 -1.9963448131
O 0.0773231309 -2.1007967128 0.5199377169
C -0.1736000027 -2.4162405951 1.9224652103
S -0.8012046106 -4.1463128727 1.9727085247
C -0.0037973589 -4.4207321672 0.3896421910
C 0.3486167365 -3.2798336024 -0.2013064996
H 0.8126795415 -3.1150573951 -1.1628329673
H 0.7847226601 -2.3406323890 2.4499132575
O -0.6164868994 -0.0646203268 2.0470078231
C -1.1631326575 -1.3709434758 2.4293610935
C -1.3225776586 -1.2717559902 3.9150911812
C -0.9335841999 -0.0797559692 4.3726718431
C -0.4424563161 0.7798961836 3.2344808862
H 0.6164310025 1.0509732583 3.3243623725
H -1.0227808387 1.6945595443 3.0868309095
H -1.7286195867 -2.0798262035 4.5126698465
H -2.1140544950 -1.5016574328 1.8968400496
C -0.9634076703 0.3865956606 5.8338456283
N -1.3731243477 -0.5694956209 6.8237976011
C -1.9385075261 1.5817094730 5.9179646090
O -3.0911847420 1.5026731036 6.1803213883
Cl -1.1659025398 3.1667162948 5.4859144088
H 0.0351973205 0.7560351064 6.0941599824
H -2.3299078353 -0.8900547767 6.7175398698
H -0.7296774446 -1.3439018629 6.9434087641
C 0.1764505783 -5.8431009443 -0.1204973891
N -0.9321035897 -6.7358858386 0.1027239299
C 1.4161892195 -6.4409434233 0.5791747293
O 1.3745699430 -7.2034486227 1.4878395948
Cl 2.9680097232 -5.8166800238 -0.0799782476
H 0.4024868236 -5.7831779011 -1.1917821292
H -0.9489752434 -7.1332890453 1.0370210805
H -1.8336574772 -6.3549536973 -0.1610782344
O -2.0785022958 0.3730979863 -0.6879393921
C -2.4121292594 0.1116406332 -2.0900032426
S -4.1815903677 -0.3958468270 -2.1392608165
C -4.4026071712 0.3766234593 -0.5390908726
C -3.2433198169 0.6705176147 0.0474571407
H -3.0534279481 1.1004919229 1.0201148834
H -2.2631989854 1.0497840044 -2.6355380881
O -0.1071347363 -0.5271265897 -2.1604390035
C -1.4408339867 -0.9657709808 -2.5725652815
C -1.3244362062 -1.1262749945 -4.0575012673
C -0.1068503577 -0.7935043421 -4.4915246632
C 0.7566574834 -0.3571004812 -3.3340378464
H 1.0637496062 0.6936701763 -3.4008078543
H 1.6476152275 -0.9727563260 -3.1863536144
H -2.1432611949 -1.4834855190 -4.6714029324
H -1.6601210758 -1.9032765147 -2.0451542725
C 0.3796410420 -0.8241122488 -5.9458207583
N -0.5709488601 -1.2055180991 -6.9524455499
C 1.5558818063 -1.8218343799 -6.0224020451
O 1.4598078550 -2.9713949938 -6.2907159313
Cl 3.1528572087 -1.0785174067 -5.5727585041
H 0.7730684935 0.1688403160 -6.1924201660
H -0.9187109849 -2.1535424207 -6.8527595806
H -1.3268418308 -0.5417358682 -7.0792406248
C -5.8112180956 0.5986489878 -0.0053751625
N -6.7475314165 -0.4707433709 -0.2378243971
C -6.3726310417 1.8747098182 -0.6683459824
O -7.1596877653 1.8857157470 -1.5561711857
Cl -5.6665889205 3.3869231263 0.0069417038
H -5.7285082677 0.7997813618 1.0694981746
H -7.1604928744 -0.4537160804 -1.1652672476
H -6.3967449776 -1.3911876900 0.0011718886
