106
# extracted from Terachem optimization
Mn -0.0922897014 0.1181867706 -0.0313202466
O 0.0585611197 2.2635060938 0.0199144590
C 1.3349633756 2.7816568419 0.5220024452
C 1.2592126484 4.2498427881 0.2318613716
C 0.1438757546 4.5566252916 -0.4320487357
C -0.6853539503 3.3217194333 -0.6710337321
H -1.6861835957 3.3576115083 -0.2327120170
H -0.7710722746 3.0559017366 -1.7311627672
H 2.0302098706 4.9546132822 0.5161305055
H 1.3783703452 2.5419397123 1.5917354171
O 2.1879700740 0.6253082448 -0.0860627844
C 2.4681561623 2.0468573651 -0.1984344013
S 4.0680474290 2.5019863226 0.5457187065
C 5.1311799576 1.4351911775 -0.5215770317
C 4.4652214547 0.1167445008 -0.7840595044
C 3.1959063365 -0.2202203111 -0.5541787747
H 6.0088662366 1.2417947994 0.1065569653
H 2.8086529135 -1.2204812790 -0.6925952684
H 5.1001892080 -0.6803075186 -1.1629922546
H 2.4769789619 2.2790129427 -1.2674192477
C 5.6519470567 2.2018008393 -1.8103286000
N 4.6888359735 2.7661411983 -2.7118475055
C 6.5119080254 1.2089025229 -2.6026484909
O 6.1333650073 0.6033045405 -3.5555595144
Cl 8.1359695828 0.9365248598 -1.8852330930
H 6.2945669951 3.0062272352 -1.4424539858
H 4.0932671259 2.0886314729 -3.1729815084
H 4.1793372216 3.5548421967 -2.3326228349
C -0.2245564127 5.9473501308 -0.9255900767
N 0.6883821250 6.9312320802 -0.3923524095
C -1.7048819756 6.2469243008 -0.5711678842
O -2.0834023997 6.8803340053 0.3550032263
Cl -2.8849062932 5.4941027611 -1.7516732967
H -0.1572878911 5.9508369248 -2.0203982118
H 0.4389566369 7.1736387788 0.5655418076
H 0.6556378987 7.7897368420 -0.9372815842
O 0.5388658499 -1.9433717880 0.1956777435
C 1.0246076661 -2.2381380890 1.5515342087
C 1.1245257142 -3.7331342487 1.5699024472
C 0.7629881562 -4.2619031370 0.3993630812
C 0.3378454356 -3.1819966066 -0.5610193019
H 0.9395230048 -3.1164523829 -1.4711679821
H -0.7178835549 -3.2539114334 -0.8494446495
H 1.4551755519 -4.2984220743 2.4319212543
H 1.9952358265 -1.7374407098 1.6586572002
O -0.1403323746 -0.2322183815 2.1715715552
C 0.0512654950 -1.6244485396 2.5629812509
S 0.7308950770 -1.7696076202 4.2451814521
C -0.6464876499 -0.9117372874 5.1292349138
C -1.1733430004 0.2388907891 4.3220687592
C -0.9156490846 0.5357460157 3.0490369926
H -0.1540674544 -0.4921576925 6.0146288549
H -1.2715069223 1.4328660742 2.5564624113
H -1.8068068423 0.9484451738 4.8486977113
H -0.9331416119 -2.0991961540 2.5135444426
C -1.7411432612 -1.9330966182 5.6500248274
N -2.3984715633 -2.7821083611 4.6980021829
C -2.8186713317 -1.1148786885 6.3738801901
O -3.8661804645 -0.8084818429 5.8968709128
Cl -2.3122621551 -0.5468266968 7.9990697578
H -1.2359480930 -2.5672129630 6.3837990622
H -2.9801179625 -2.3013679892 4.0222512509
H -1.8010552412 -3.4892222692 4.2882223274
C 0.7458804696 -5.7488949662 0.0772790697
N 1.2790235469 -6.5116785277 1.1823189018
C 1.5237564055 -5.9958175407 -1.2444773476
O 2.6424032807 -6.3812470878 -1.3185028830
Cl 0.5589503114 -5.6153190615 -2.7444336186
H -0.2925367797 -6.0520507697 -0.1039469394
H 2.2978560244 -6.5184890449 1.1545174878
H 0.9741978474 -7.4810811940 1.1334616184
O -2.2600479538 0.0387629448 -0.2304669333
C -2.7580488168 0.3498974081 -1.5733826703
C -4.1781814903 -0.1272190614 -1.5485001535
C -4.4970223706 -0.6409925402 -0.3599683638
C -3.3151746386 -0.5875018560 0.5717682720
H -3.4713783605 0.0255168835 1.4630957996
H -2.9717141364 -1.5798953180 0.8883537006
H -4.8456134288 -0.0567893336 -2.3978057596
H -2.6757429109 1.4356413794 -1.7101891569
O -0.4817609811 -0.0221791252 -2.2514445459
C -1.8599928887 -0.3506544583 -2.5960755785
S -2.2903353240 0.1899577356 -4.2790437301
C -1.0333240107 -0.8274200296 -5.1718565136
C 0.2593392340 -0.8640811988 -4.4103826934
C 0.4858689263 -0.4765470069 -3.1553987222
H -0.8539795325 -0.2590593039 -6.0922230583
H 1.4741834479 -0.4507347221 -2.7116198501
H 1.1353899481 -1.1979819962 -4.9610745803
H -1.9469277462 -1.4382699983 -2.5218719848
C -1.6118147578 -2.2396457501 -5.6133710438
N -2.1736927218 -3.1000867132 -4.6117750395
C -0.4671802941 -3.0020852710 -6.2925742766
O 0.1861003022 -3.8442112097 -5.7593046631
Cl -0.1056457038 -2.4273268680 -7.9512568230
H -2.3832727566 -2.0273222921 -6.3587671615
H -1.5084629720 -3.4653523756 -3.9411047037
H -3.0267004456 -2.7520189868 -4.1921847957
C -5.8526749629 -1.2280097938 0.0023587285
N -6.7797898694 -1.0749224460 -1.0958912032
C -6.3697272790 -0.5701550131 1.3103718092
O -7.1729224353 0.2991376568 1.3704927112
Cl -5.6095365887 -1.2563917437 2.8195459090
H -5.7208140367 -2.2957217763 0.2169500310
H -7.1877593676 -0.1407904593 -1.0903920253
H -7.5504072109 -1.7337581673 -1.0106276761
