97
# extracted from Terachem optimization
Mn -0.0163310874 -0.0298869343 0.3326236601
O -0.0080896168 2.1744204404 0.2890492336
C 1.2436419183 2.8734625379 0.6454741949
S 1.1099453748 4.6173726067 0.0400292769
C -0.4408566859 4.2313468919 -0.7108885387
C -0.8543828302 2.9795065392 -0.4699960492
H -1.7892312701 2.5112177106 -0.7299947106
H 1.3118139457 2.8594024895 1.7354987251
O 2.1129070793 0.6756759722 0.4069250375
C 2.3817940810 2.0578360947 0.0205398327
C 3.7551528380 2.3301845060 0.5466501194
C 4.2721695872 1.2430868597 1.1244402343
C 3.2956187425 0.0959460319 1.0581068747
H 3.0004160113 -0.2841375542 2.0421227387
H 3.6409798753 -0.7442707982 0.4480829403
H 4.2640438694 3.2818947003 0.4491494071
H 2.3143912682 2.1317217214 -1.0729232610
C 5.6479029447 1.1820896578 1.7738311779
N 6.4111160851 2.3605023808 1.4432469864
C 6.3685633344 -0.1358116601 1.3774103776
O 7.2269355353 -0.2401251165 0.5699109288
Cl 5.7487016868 -1.5844255073 2.3044319319
H 5.5059049451 1.1382909725 2.8610754051
H 6.8497652094 2.2696537695 0.5279282533
H 7.1527005147 2.5243067804 2.1203155258
C -1.0902649894 5.3697396838 -1.4897533077
N -0.5827460272 6.6193320409 -0.9789118352
C -2.6304818464 5.2467749272 -1.4312606880
O -3.3689333711 5.8985872162 -0.7829442718
Cl -3.2701829370 3.9003415262 -2.5328410366
H -0.7947289085 5.2753443947 -2.5412252383
H -1.0748833227 6.9286971264 -0.1420282751
H -0.6264427694 7.3654817157 -1.6689067516
O 0.2625389552 -2.0005172523 0.5283788110
C 0.3433064487 -2.4472321976 1.9368528674
S 0.0065645156 -4.2576504118 1.9268521990
C 0.5919691124 -4.2794425361 0.2420346304
C 0.6684721594 -3.0730596286 -0.3218528511
H 0.9732814652 -2.7693047078 -1.3111149659
H 1.3710068757 -2.2535093869 2.2643713087
O -0.3882132853 -0.1970780624 2.2771696551
C -0.6517450711 -1.5911500550 2.7021494245
C -0.4965915110 -1.5357482661 4.1872139961
C -0.2662891439 -0.2919802233 4.6129168489
C -0.2138634938 0.6754094324 3.4582528591
H 0.7452205013 1.1919952341 3.3606138168
H -1.0189752339 1.4147422528 3.4489839690
H -0.5801566861 -2.4002641480 4.8356028301
H -1.6699781363 -1.8502197087 2.3807159118
C -0.0560523822 0.0929445020 6.0739595208
N -0.3493633587 -1.0284104645 6.9321974188
C -0.9012534663 1.3506367921 6.4073921709
O -1.9306360656 1.3585913467 6.9902700999
Cl -0.1515054750 2.8948954544 5.7728390106
H 0.9951411854 0.3807566383 6.1990625093
H -1.3453685673 -1.0793291041 7.1416361287
H 0.1428409178 -0.9525592053 7.8192457123
C 0.8723475968 -5.6710570629 -0.3239168650
N 0.5905740030 -6.6454128939 0.7106451133
C 2.3354184098 -5.7372201990 -0.8256857311
O 3.2205372679 -6.2828913384 -0.2579750392
Cl 2.5907298547 -4.8624182771 -2.3903308945
H 0.2154255916 -5.8390140865 -1.1827078280
H 1.4384982239 -6.9018021872 1.2157473533
H 0.1846867089 -7.4972881905 0.3315368137
O -2.7634745040 -0.0097462098 -0.4811598029
C -2.6328732778 -0.0489132488 -1.9341875966
S -4.2033134184 -0.7669336188 -2.6239094171
C -4.9021416349 -0.7228583196 -1.0366067131
C -4.0152225404 -0.3258918588 -0.0729449429
H -4.1896997022 -0.2383607867 0.9916362396
H -2.5515983978 0.9904147254 -2.2761267279
O -0.2162716102 -0.1269570465 -1.7317419659
C -1.3609743003 -0.8329588520 -2.3035019025
C -1.0640678191 -0.8610429407 -3.7717469695
C 0.0418751259 -0.1702101778 -4.0577652704
C 0.6369464407 0.4202507895 -2.8068351590
H 0.5810524257 1.5132992963 -2.7745937761
H 1.6616447417 0.1089534918 -2.5935904248
H -1.6731097740 -1.3749856372 -4.5063542889
H -1.4062860811 -1.8252999359 -1.8373841233
C 0.5989403391 0.0238905563 -5.4635078916
N -0.1034896641 -0.8217864853 -6.3981217750
C 2.1309224487 -0.2242420874 -5.4502911849
O 2.6698049112 -1.2167995658 -5.8040146097
Cl 3.0728299330 1.1930764043 -4.7879705164
H 0.4513529824 1.0748393202 -5.7412460350
H 0.3080269470 -1.7539126950 -6.4261898460
H -0.0563202150 -0.4440786090 -7.3417011674
C -6.3572657696 -1.1591327300 -0.9649066056
N -6.7672965327 -1.4910870510 -2.3166918887
C -7.2387439540 -0.0331694622 -0.3461953054
O -8.0224409019 0.6007770801 -0.9696723366
Cl -6.9608342731 0.2097233213 1.4013426969
H -6.4328706080 -2.0277678940 -0.2998424962
H -7.3758119676 -0.7679245178 -2.7025002997
H -7.2640199324 -2.3775076978 -2.3653979560
