109
# extracted from Terachem optimization
Mn 0.4808435106 -0.2229174239 -0.2885706936
O 0.6644674187 1.8732886025 -0.3978467288
C 2.0742556119 2.3759012840 -0.5095430552
N 1.9428967147 3.6449380659 -1.1687013190
C 0.6098329655 3.8029727026 -1.5807958097
C -0.1208939043 2.7585710056 -1.1758471859
H -1.1492109823 2.4890165154 -1.3252539296
H 2.4189705623 4.4618501421 -0.8029025822
H 2.4883331860 2.4304593227 0.5017508362
O 2.5710116912 0.0159090576 -0.9122385208
C 2.8444947968 1.3836977336 -1.3953825897
S 4.5871179913 1.8280428158 -1.6027528140
C 5.1709920595 1.1522460781 0.0262522163
C 4.7579670904 -0.2911487881 0.1126600912
C 3.5999641457 -0.7530938387 -0.3494759201
H 4.7501945530 1.7479496547 0.8487564494
H 3.3482395638 -1.8034394891 -0.3922691716
H 5.4711149686 -1.0053521570 0.5117079114
H 2.4030861211 1.4285577379 -2.3944265791
C 6.6959990008 1.3749478571 0.0594480844
O 7.2680343975 1.8053286735 -0.9181114610
C 7.4448894692 1.2031940931 1.3939650933
O 7.2066405907 2.4130051477 2.1216496266
N 7.0068117149 0.0632220563 2.1510641354
H 8.5031343808 1.0841220043 1.1392435854
H 7.7920249538 3.1111906707 1.7810252442
H 7.7178869979 -0.1895093802 2.8348318617
H 6.1743623390 0.3102763374 2.6864453854
C 0.2449382940 5.0378238321 -2.3321538741
O 1.0896984038 5.9024196060 -2.4496538730
C -1.1728632424 5.2001903652 -2.9042747353
O -1.5520098203 3.9126835035 -3.4306115724
N -2.0287034664 5.7434022091 -1.8952332859
H -1.0862032725 5.9360632242 -3.7091878106
H -2.2074008118 4.0155505485 -4.1538874281
H -2.8563720020 6.1948021899 -2.2729845334
H -2.3041974229 5.0569607689 -1.1990077275
O 0.8611182655 -2.2407407185 -0.0481231062
C 1.2181100612 -2.6848840127 1.3125056457
N 0.4928718835 -3.9273321465 1.4573535917
C 0.1405141552 -4.3641377367 0.1687512711
C 0.3145520382 -3.3758081858 -0.7154887366
H 0.1083221370 -3.2710078420 -1.7650236695
H 0.8736005428 -4.6389616875 2.0736783753
H 2.3135914163 -2.7919278181 1.3369428151
O 1.0004386090 -0.3122441023 1.7653085691
C 0.7558609595 -1.6380723699 2.3293899944
S 1.6502505445 -1.8946203688 3.8908588509
C 0.7733875389 -0.5404181943 4.8020581564
C 0.7107618078 0.6993380250 3.9653050724
C 0.8033403501 0.7678799778 2.6386058759
H 1.3921624388 -0.3803822373 5.6881110398
H 0.7456791723 1.6874500929 2.0732804100
H 0.5441758990 1.6369604876 4.4891031371
H -0.3180532473 -1.7289307375 2.5015008192
C -0.6286825945 -1.0370948410 5.2143802385
O -1.5272106276 -1.0927074468 4.3924901776
C -0.8164399328 -1.4330415733 6.6840737940
O 0.2144814300 -2.3307282623 7.0739787777
N -0.7615220421 -0.2071892003 7.4323546237
H -1.8157967739 -1.8720280438 6.7766887651
H -0.0664743712 -3.2493172063 6.9311937459
H -1.3101437592 -0.2634720154 8.2867981613
H 0.1976509005 0.0020527444 7.7033178334
C -0.3727066893 -5.7579925402 0.0109624157
O -0.5280683313 -6.4273235453 1.0134624997
C -0.6422489169 -6.2892952727 -1.4063709641
O -1.3195489747 -5.2857211567 -2.1849661254
N 0.6102848503 -6.6722045245 -1.9746742401
H -1.2624458338 -7.1831251647 -1.2902808957
H -2.2784831711 -5.4240449606 -2.1162347611
H 0.4870385246 -7.2566398396 -2.7976629883
H 1.1732586289 -5.8659518466 -2.2334061271
O -1.5787305548 -0.1733420281 0.0932298908
C -2.4003931891 -0.1239898435 -1.1342587646
N -3.6430610956 -0.7233879125 -0.7271747496
C -3.6863173456 -0.7036662344 0.6806815096
C -2.4807043021 -0.4157770055 1.1796858535
H -2.0822696245 -0.3130756883 2.1752316677
H -4.4978569959 -0.4037939123 -1.1745941841
H -2.4838888886 0.9322863059 -1.4345640699
O -0.2822988040 -0.5538081285 -2.2094793695
C -1.7133560532 -0.9461013254 -2.2223164846
S -2.5654412485 -0.8019335436 -3.8195756605
C -1.6354908702 0.7075186495 -4.4010657606
C -0.1726787693 0.3584866504 -4.4295090742
C 0.4047314813 -0.2516377950 -3.3991627863
H -1.8171707725 1.5448610285 -3.7135667148
H 1.4285696452 -0.6016897339 -3.3580296358
H 0.4076817102 0.5512959989 -5.3249535694
H -1.7559624067 -1.9981990303 -1.9298246221
C -2.2470254372 1.0891594301 -5.7561814003
O -3.1067613229 0.3951490025 -6.2548756467
C -1.8621941508 2.4258378358 -6.4217875231
O -2.7791469261 3.4193184741 -5.8880867851
N -0.5069402899 2.8046483087 -6.1995851368
H -2.0406139823 2.3004138232 -7.4937629612
H -3.6644418642 3.2782279933 -6.2673642431
H -0.2215629030 3.5295203216 -6.8538500932
H -0.3849772713 3.1664204038 -5.2536004809
C -5.0325682222 -0.9214876153 1.2930347741
O -5.9965765667 -0.7515571882 0.5688079775
C -5.1810191174 -1.3661144626 2.7513014214
O -4.6553364275 -2.6891074786 2.7658065513
N -4.5141417844 -0.4519815374 3.6500698437
H -6.2607323142 -1.3488103597 2.9367136078
H -5.1034093816 -3.1948889441 3.4631229024
H -5.0767461712 -0.2411442462 4.4688076617
H -3.6221952710 -0.8347641649 3.9579793675
