94
# extracted from Terachem optimization
Mn 0.0783526882 0.0090567034 0.0888326625
O 0.2753890977 2.0362776476 -0.1582169841
C 1.6263773416 2.4758634093 -0.5047846457
C 1.6559492004 3.9141607070 -0.0821228121
C 0.4806647018 4.2945718751 0.4194172398
C -0.5146950531 3.1712436354 0.3375805174
H -0.9372411252 2.9070489216 1.3093005545
H -1.3327679441 3.3627198893 -0.3649590596
H 2.5537978787 4.5151678894 -0.1681208465
H 1.7823910292 2.3205883974 -1.5792068707
O 2.1951868426 0.2068156094 0.1165600961
C 2.6278504398 1.6089638901 0.2609080819
O 3.8674874957 1.7881752634 -0.2942094783
C 4.9218724568 1.0939735671 0.4284003366
C 4.4391645751 -0.2829003591 0.7954414413
C 3.1809506140 -0.6735941956 0.6090898807
H 5.1647176079 1.6695149505 1.3320765971
H 2.7994715133 -1.6671544428 0.8048404166
H 5.1502349722 -0.9821142703 1.2206918899
H 2.6114600326 1.8095492507 1.3413790142
C 6.1368260728 1.1019570005 -0.5073871091
C 7.3836725615 0.6088333749 0.1993513999
O 7.4236960592 0.2016478830 1.3225390610
Cl 8.8370298780 0.6879719460 -0.8309745221
H 5.9587073620 0.4795954971 -1.3915346666
H 6.3141109760 2.1211411919 -0.8686019004
C 0.1238234399 5.6066602539 1.0533228517
C -0.0975940369 5.4335032068 2.5549394901
O -0.0542909941 4.3894763035 3.1433471535
Cl -0.4454110680 6.9585986707 3.3868937737
H 0.9107173086 6.3525588921 0.9010637986
H -0.7933839954 6.0361234297 0.6280655754
O -0.0828728334 -2.0221017874 0.3129105955
C -0.6521542552 -2.4368262281 1.5874122932
C -0.1563419764 -3.8428140027 1.7560929782
C 0.5449309809 -4.2359126606 0.6916404276
C 0.5523600998 -3.1559770585 -0.3579547275
H 1.5563299528 -2.8616179117 -0.6718913986
H -0.0426643421 -3.4103118844 -1.2430215320
H -0.3490878365 -4.4152337479 2.6562482999
H -1.7448711639 -2.3516383935 1.5331662047
O -0.2271269700 -0.1078829931 2.1372356674
C -0.1464558240 -1.4860854166 2.6733436203
O -0.9462129718 -1.6116621640 3.7772848985
C -0.4630721477 -0.8477063962 4.9167068148
C -0.0259467837 0.5112951251 4.4432912420
C 0.0412299430 0.8315681697 3.1541116109
H 0.3795969374 -1.3853033416 5.3724517632
H 0.2961862270 1.8076423983 2.7633536006
H 0.2363644986 1.2577446964 5.1845503159
H 0.9165471983 -1.6472427883 2.9014686987
C -1.6251590658 -0.8129058449 5.9174151254
C -1.1862496343 -0.2375234757 7.2492727754
O -0.0881027183 0.1651086434 7.4943441491
Cl -2.4959776285 -0.2128434315 8.4596332717
H -2.4643036658 -0.2254246525 5.5288865634
H -1.9993513784 -1.8301648391 6.0800441125
C 1.3044836201 -5.5158269000 0.5072082389
C 2.8095592254 -5.2526475295 0.5382144983
O 3.3183126623 -4.1741404720 0.6628691098
Cl 3.7750329752 -6.7270279442 0.3620895726
H 1.0642631199 -6.2408749953 1.2920345362
H 1.0694997766 -6.0099585476 -0.4451173953
O -2.0201158993 0.0021333710 -0.1868726122
C -2.3961953375 -0.3872806572 -1.5381142468
C -3.7155998271 0.2947567201 -1.7543749901
C -4.1156799450 0.9223322492 -0.6475038524
C -3.1317002923 0.6849052401 0.4679368491
H -2.7625350469 1.6040806695 0.9247714684
H -3.5287896415 0.0284454085 1.2526437304
H -4.2303729093 0.2606783639 -2.7075663552
H -2.4497195757 -1.4826504833 -1.5860147405
O -0.0065006248 -0.3221862409 -1.9583557202
C -1.3146236590 0.0741299170 -2.5186340042
O -1.5291923910 -0.5528095768 -3.7192763462
C -0.6208552996 -0.1155032152 -4.7648127867
C 0.7745386158 -0.0455216377 -4.2054862255
C 1.0227526701 -0.1806702980 -2.9056982725
H -0.9429749504 0.8726758321 -5.1209745101
H 1.9931847646 -0.1861928589 -2.4275398240
H 1.5981812651 0.1117658947 -4.8927096947
H -1.2782624400 1.1687868662 -2.6124263713
C -0.7838130758 -1.1290511321 -5.9043586901
C -0.0613988096 -0.6722639523 -7.1557556547
O 0.5902080068 0.3260656031 -7.2465036265
Cl -0.2730428568 -1.7921055725 -8.5262356357
H -0.4088451504 -2.1163261230 -5.6122505110
H -1.8478297246 -1.2515304619 -6.1363038264
C -5.3372970844 1.7741966528 -0.4598430499
C -4.9635823478 3.2334068018 -0.2090554685
O -3.8449234416 3.6547870103 -0.1118678540
Cl -6.3748615715 4.2947034911 -0.0542766579
H -5.9934690122 1.7307806118 -1.3355843197
H -5.9475538851 1.4395926475 0.3906217160
