100
# extracted from Terachem optimization
Mn -0.1391990604 -0.1103965418 -0.0238742430
O 0.4429488726 1.8951733570 -0.2539407018
C 1.8657294315 2.2229208309 -0.3392977716
S 2.0026145135 3.6490025000 -1.4984265725
C 0.3011254767 4.0446604552 -1.1289089726
C -0.3349785760 3.0484491738 -0.5170075918
H -1.3548901855 2.9726448605 -0.1730184983
H 2.1872674466 2.5054270346 0.6696657944
O 2.0262112644 -0.1360343459 -0.0599485547
C 2.6233818429 0.9882923854 -0.8170041126
C 4.1014261883 1.1208301638 -0.5818643588
C 4.8418194658 0.0818158218 -0.1701130080
C 4.1707076038 -1.1925168967 0.1003028635
C 2.8401664969 -1.2565030654 0.1615366074
H 4.5648639303 2.0783566091 -0.7974802947
H 2.2494513613 -2.1254172234 0.4144430951
H 4.7428897625 -2.0949978900 0.2870698350
H 2.3812859274 0.8046237468 -1.8742694450
C 6.3371896137 0.1835803440 0.0424725101
C 6.7291642854 -0.0639622151 1.5073750110
O 6.7333598072 1.4721997271 -0.3929318977
H 6.8049399522 -0.5964858027 -0.5846105105
H 7.8183083792 -0.0184559774 1.6173084247
H 6.2827372424 0.7019060084 2.1493667637
H 6.4068420883 -1.0506880795 1.8561061626
H 7.6906331694 1.5607452936 -0.2654523808
C -0.2031146162 5.4071177206 -1.5346170375
C -1.7265592501 5.4949133281 -1.6328456910
O 0.4335546050 5.6652620193 -2.7822294301
H 0.1539367878 6.1210044551 -0.7747678057
H -2.0174298257 6.5045783520 -1.9389301786
H -2.1041318599 4.7896803507 -2.3792581658
H -2.2043158280 5.2982952033 -0.6659086006
H 0.4218222458 6.6214119688 -2.9485252913
O -0.4028296644 -2.0957904735 0.5684347299
C -0.2964696989 -2.4266211714 1.9937290073
S -1.4256122923 -3.8501879235 2.2969626042
C -1.3845388801 -4.2079656108 0.5515051922
C -0.8498361651 -3.2248306416 -0.1671064229
H -0.6859096463 -3.1454286509 -1.2305558887
H 0.7475185029 -2.7005721589 2.1821439999
O -0.0195198026 -0.0655747033 2.1245258939
C -0.6838115081 -1.1961789089 2.8049859120
C -0.2770999310 -1.3279226062 4.2441863699
C 0.1900021912 -0.2792047458 4.9364467976
C 0.3578870158 0.9979433223 4.2387855473
C 0.2637551132 1.0618640807 2.9099639629
H -0.4263070236 -2.2879555866 4.7277304214
H 0.4236457221 1.9359275803 2.2966922250
H 0.5877158595 1.9055870672 4.7866855048
H -1.7662842301 -1.0276092488 2.6966866375
C 0.5517935367 -0.3756297990 6.4031661942
C 2.0488413150 -0.1333064985 6.6497742064
O 0.1496138625 -1.6604736617 6.8444572692
H -0.0228525366 0.4092517325 6.9268413497
H 2.2628949839 -0.1759472037 7.7234465206
H 2.6418929008 -0.9027795346 6.1457021758
H 2.3682063365 0.8512302406 6.2916916241
H 0.3864342573 -1.7540329946 7.7802653663
C -1.9475730742 -5.5385414824 0.1132247828
C -2.3865174230 -5.5669966626 -1.3508516534
O -3.0337098716 -5.7711650560 1.0056351262
H -1.1594670003 -6.2913600492 0.2753069249
H -2.7855821666 -6.5562900333 -1.5955161466
H -3.1725568316 -4.8269576061 -1.5275605675
H -1.5445656533 -5.3784448218 -2.0270978204
H -3.2364939803 -6.7203006792 1.0131973743
O -2.1527356919 0.3332976619 -0.2621777181
C -2.5224441396 0.5153875451 -1.6705647067
S -4.3440148584 0.2411823034 -1.7952447131
C -4.4671978282 0.3795911687 -0.0220420544
C -3.2855980848 0.4019489478 0.5862781700
H -3.0396289807 0.4709676864 1.6344466278
H -2.2529405286 1.5399586899 -1.9481745650
O -0.3436628606 -0.3990832981 -2.0696844344
C -1.7533922065 -0.4894087542 -2.5138216330
C -1.8572097399 -0.2203375038 -3.9882231732
C -0.8689533265 -0.6214233038 -4.8041268304
C 0.3186693444 -1.2327758845 -4.2023226939
C 0.5572841459 -1.0971357686 -2.8948412142
H -2.7544184616 0.2413496644 -4.3860099761
H 1.4423790526 -1.4189425724 -2.3618482949
H 1.0438502518 -1.7623207893 -4.8117158822
H -2.0890090789 -1.5043789945 -2.2525025688
C -0.9234958585 -0.4396510894 -6.3054046771
C 0.1671535497 0.5170152168 -6.8112146647
O -2.2217116717 0.0315979492 -6.6185892625
H -0.7563307570 -1.4352634199 -6.7546285933
H 0.1166922269 0.5995587873 -7.9026198307
H 0.0234755695 1.5123768195 -6.3792626591
H 1.1722695526 0.1633212207 -6.5573818861
H -2.2712790074 0.1871722270 -7.5745636658
C -5.8556673203 0.4551478783 0.5671457555
C -5.9208044237 0.0075210167 2.0279073107
O -6.6490765940 -0.3650776033 -0.2851022207
H -6.1834506472 1.5046305698 0.4906254373
H -6.9523563639 0.0744971595 2.3877317077
H -5.5896686344 -1.0304935115 2.1240042244
H -5.3095496173 0.6493612164 2.6731419091
H -7.5842521599 -0.1379562600 -0.1583344586
