142
# extracted from Terachem optimization
Mn 0.1218953763 -0.0751041633 -0.0314334634
O 0.3788342857 2.1880953446 -0.0673210665
C 1.7471418723 2.5826572539 0.2671103138
S 2.0213755076 4.2757217765 -0.4304693407
C 0.5869539815 4.0523510461 -1.4568430100
C -0.1206490580 2.9683871483 -1.1226576092
H -1.0651749787 2.6456772192 -1.5300973543
H 1.8176910081 2.5913687045 1.3562889879
O 2.2221516580 0.2313841802 0.0677283135
C 2.7198345948 1.5634916206 -0.3384991436
C 4.1360770317 1.7824889882 0.1180897984
C 4.9905797356 0.7570531344 0.2870148958
C 4.4685687483 -0.6035401912 0.1028173331
C 3.1553256805 -0.8200529081 0.0114228916
H 4.4615392778 2.8055791428 0.2800214967
H 2.6716106419 -1.7863716323 -0.0680129553
H 5.1466751582 -1.4466074812 0.0645730817
H 2.6263549336 1.6048954140 -1.4347286537
C 6.4384394811 1.0067271970 0.7576236696
N 6.7361912466 2.4185588406 0.5938933924
N 6.5192811862 0.5759221130 2.1504952383
C 7.4681725109 0.0583511212 -0.0312842337
O 7.2923070883 -1.2542796461 0.3379165418
C 7.4266519920 0.1593211131 -1.5457306821
Cl 9.1731457899 0.6096036107 0.5244292496
H 7.5836700653 2.6849019212 1.0898365077
H 6.8284282736 2.7073694265 -0.3786187725
H 7.4458047658 0.7834849262 2.5273981603
H 5.8373128482 1.0737060730 2.7188832245
H 7.1975159222 -1.2647813134 1.3142121629
H 7.6423888981 1.1720766684 -1.8921173543
H 8.1786007776 -0.5119365751 -1.9661488953
H 6.4428937462 -0.1500060278 -1.9152125720
C 0.3475169380 5.1093265115 -2.5393327698
N 1.0101163674 6.3167627231 -2.0487517023
N 1.0051461384 4.6403303915 -3.7688402593
C -1.2090298612 5.2438014648 -2.8025550882
O -1.7771667662 4.0278164032 -3.1055624343
C -1.9850934300 5.8643688774 -1.6465626698
Cl -1.3900864770 6.4164194318 -4.2524112174
H 1.0948073558 7.0095924427 -2.7913820748
H 0.5012460906 6.7577571018 -1.2837185871
H 0.8305497979 5.3319878487 -4.5025158871
H 2.0145216167 4.6413368680 -3.6110201285
H -1.3689692321 3.6049616086 -3.9181625410
H -1.6909540559 6.8983889953 -1.4604100915
H -3.0467708191 5.8553888221 -1.9008708174
H -1.8401870524 5.2769400905 -0.7332600398
O 0.2279520073 -2.5058006042 0.5221229293
C 0.5047503160 -2.6432484268 1.9427462250
S 0.0496197629 -4.3736586600 2.4403605343
C -0.6832278304 -4.6177948245 0.8573533308
C -0.4881865973 -3.5773989195 0.0252858776
H -0.7930685979 -3.4946202804 -1.0066272722
H 1.5753459671 -2.4748994019 2.0808684691
O 0.0320075695 -0.2915203843 2.1281706485
C -0.3138766206 -1.6030077706 2.7109787978
C -0.0607924035 -1.6274021399 4.1941256893
C -0.2306456723 -0.5164508134 4.9367282645
C -0.5301134717 0.7323083260 4.2265777175
C -0.3807232643 0.8112223737 2.9024687072
H 0.2188708593 -2.5665935007 4.6609285745
H -0.4900199326 1.7071719616 2.3044566699
H -0.8383806930 1.6139591924 4.7738399148
H -1.3766431124 -1.7721901056 2.4806922746
C -0.0190146383 -0.5464246943 6.4644909962
N 0.0007422322 -1.9338453689 6.8954248990
N 1.2325678681 0.1470787130 6.7463123549
C -1.1535618781 0.3183148968 7.2067326821
O -0.9873455642 1.6554909605 6.9371319459
C -2.5874765883 -0.0781276993 6.9009591084
Cl -0.8688324698 0.0393702767 9.0386065212
H 0.3671842460 -2.0293777824 7.8399260901
H -0.9106542036 -2.3871191611 6.8570356827
H 1.4449899570 0.0999814116 7.7442522923
H 2.0056634249 -0.2834370566 6.2437785996
H -0.0295162116 1.8482106556 7.0256748524
H -2.7868288230 -1.1183186177 7.1670799686
H -3.2607948830 0.5563134159 7.4813465620
H -2.8033529335 0.0743845538 5.8379672397
C -1.4593181820 -5.9222046859 0.6625995231
N -0.9813020618 -6.8137325022 1.7165268100
N -2.8775769897 -5.5926018964 0.8175033259
C -1.2764240811 -6.4487568940 -0.8215081243
O -1.7849026292 -5.5136415115 -1.7123698375
C 0.1476242232 -6.7850951975 -1.2330756386
Cl -2.2663832350 -8.0203947616 -0.9251323890
H -1.6369173911 -7.5774357062 1.8729323554
H -0.0819241428 -7.2375589037 1.4892309887
H -3.4284249548 -6.4498181309 0.7358243605
H -3.0481615444 -5.2047850887 1.7447313045
H -2.6862166333 -5.2941336812 -1.4041608443
H 0.5694730584 -7.5871679729 -0.6241601359
H 0.1403901832 -7.1206755089 -2.2722392104
H 0.7872974169 -5.8992429179 -1.1590548048
O -1.8519285472 -0.3579282516 -0.2769533043
C -2.3462911856 -0.2748277344 -1.6566714458
S -3.8686734424 -1.3209930168 -1.7317849691
C -4.0381371036 -1.0884610680 0.0287969041
C -2.9530942353 -0.5738510469 0.6031110706
H -2.7827565850 -0.2988686473 1.6308212789
H -2.6162453651 0.7751202449 -1.8155575122
O 0.0356491223 -0.3559027599 -2.0162390923
C -1.2580554135 -0.7057807354 -2.6475453899
C -1.4503369426 0.0218588285 -3.9552249680
C -0.4236466360 0.5380479207 -4.6527956083
C 0.9279675651 0.2485753166 -4.1499733109
C 1.1208919104 -0.2108028393 -2.9157644616
H -2.4743070741 0.1182137291 -4.3080807774
H 2.0585951288 -0.4921627279 -2.4598012370
H 1.8016004494 0.3873604651 -4.7679773744
H -1.2498633946 -1.7987080607 -2.7666351404
C -0.7326113419 1.4184140962 -5.9021517031
N -1.6342372719 0.6618940560 -6.7583941621
N -1.4532560366 2.6116873752 -5.4009774396
C 0.6013793559 1.9208385544 -6.5837346270
O 1.4549649118 2.4901460292 -5.6626160462
C 1.3529784823 0.8554168501 -7.3754842530
Cl 0.1080711104 3.2128028851 -7.8706807478
H -1.8588750526 1.2054703294 -7.5923402996
H -1.2271554939 -0.2194422361 -7.0681085945
H -1.5063843405 3.2981691631 -6.1582965966
H -2.4182249633 2.3248841153 -5.2265953513
H 0.9845145634 3.1182571718 -5.0612145641
H 0.7928290980 0.5463935696 -8.2586746091
H 2.3066028412 1.2742455282 -7.7040803082
H 1.5559512741 -0.0339576716 -6.7693385624
C -5.3183946695 -1.6330082708 0.6708837868
N -6.2726844369 -1.7895655559 -0.4199966483
N -4.9679757383 -2.9235289131 1.2802772614
C -5.7613321260 -0.7033857881 1.8733312323
O -4.7871898659 -0.7589996815 2.8607144434
C -6.0546908172 0.7469559394 1.5334282407
Cl -7.3482360594 -1.4464248150 2.5238759065
H -7.0810176937 -2.3290609642 -0.1134647084
H -6.6264140075 -0.8923981728 -0.7524210719
H -5.8268019995 -3.3803497223 1.5926107368
H -4.5287937513 -3.5380430561 0.5946904258
H -4.5771986314 -1.7142497187 2.9461878286
H -6.8709663108 0.8331805358 0.8133986672
H -6.3506232337 1.2708540640 2.4448087422
H -5.1600111465 1.2296131604 1.1279743408
