106
# extracted from Terachem optimization
Mn 0.1206973164 0.1445357940 -0.1087668412
O 0.3701883159 2.2100119150 -0.1490238108
C 1.5442025691 2.5590090102 0.6493816559
S 1.8885473969 4.3417942791 0.3471409048
C 0.9007524933 4.2437644437 -1.1419809830
C 0.2284144777 3.1021005751 -1.2463742628
H -0.4205933619 2.7723301821 -2.0382185026
H 1.2698702668 2.3939824030 1.6925849901
O 2.1678815006 0.2875147580 0.1614287920
C 2.7040837740 1.6514602609 0.2394730535
S 4.0423883678 1.7574703971 1.4640436380
C 5.1915918354 0.5976822225 0.6008239860
C 4.4444587888 -0.5529431211 -0.0097949249
C 3.1295397817 -0.6894890101 -0.1637961236
H 5.8180045441 0.1818870039 1.3970994638
H 2.6481702110 -1.5837137649 -0.5397105973
H 5.0637853842 -1.3897194727 -0.3197321771
H 3.0825914540 1.8914390094 -0.7573875002
C 6.1519841915 1.3476225469 -0.3607630812
O 5.4682384235 2.1127308927 -1.3480383758
C 7.1114953174 0.3343582440 -1.0217455588
O 7.4458315835 -0.6715002852 -0.4077080633
N 7.5431151689 0.6803016427 -2.2514268556
H 6.7748992316 2.0047492850 0.2606742157
H 5.3853840055 3.0213467125 -1.0181641566
H 7.1767189628 1.4969133858 -2.7182184614
H 8.2129245435 0.0867677448 -2.7224629900
C 0.9482072681 5.4292639180 -2.0778830461
O 1.2558058184 6.6223560621 -1.3685607465
C -0.3241872602 5.5526264736 -2.9581809490
O -0.9909559151 4.5744160584 -3.2725380241
N -0.5814441509 6.8191336309 -3.3462683965
H 1.7944217316 5.2992336465 -2.7653161887
H 0.5109148654 6.8403941632 -0.7808937921
H 0.0457572047 7.5756885208 -3.1090964080
H -1.3403824015 6.9887424920 -3.9935502885
O 0.1624357547 -1.9605543287 0.1633934447
C 0.5966421996 -2.2616982334 1.5313693438
S 0.1935141598 -4.0288742066 1.8533537083
C -0.9307521158 -3.9936833835 0.4611439982
C -0.7967877267 -2.9027158810 -0.2840785249
H -1.3237340664 -2.6362937316 -1.1830015842
H 1.6759399228 -2.1090074414 1.5506524577
O -0.1835774898 0.0009779528 1.9300821007
C -0.0994458671 -1.3275890464 2.5281847623
S 0.8618129507 -1.2759175340 4.0737704524
C -0.2982650910 -0.1642343272 4.9863351815
C -0.8945558349 0.8745009108 4.0785346243
C -0.8140466793 0.9559388973 2.7527232753
H 0.3310924651 0.3682746613 5.7075577260
H -1.2198501960 1.7653777598 2.1588503211
H -1.4226049263 1.6775806787 4.5850487507
H -1.1251740371 -1.6364785783 2.7449406812
C -1.3237177611 -0.9716861345 5.8235982576
O -2.1209579320 -1.8524562772 5.0387790979
C -2.2182498580 0.0038414649 6.6173554417
O -1.7596931365 1.0679997105 7.0150538709
N -3.4723105834 -0.4371665058 6.8464131775
H -0.7497475188 -1.5404717861 6.5674416374
H -1.7162710609 -2.7339988743 5.0567695761
H -3.7954553308 -1.3051214913 6.4453491328
H -4.0953159395 0.1273534979 7.4081920898
C -1.9043559704 -5.1370216900 0.3289019130
O -1.2969898541 -6.3768465389 0.6696183339
C -2.6413637418 -5.1719407810 -1.0323370552
O -2.9731664695 -4.1455521294 -1.6238010412
N -2.9139717050 -6.4205974813 -1.4586316519
H -2.6830843959 -4.9844900476 1.0873656172
H -0.5366424650 -6.5270229388 0.0809355993
H -2.6890302524 -7.2199393005 -0.8812052786
H -3.4802044270 -6.5471391524 -2.2871441172
O -2.0083788111 0.2091499044 -0.3584989968
C -2.3601793714 0.6199870314 -1.7142605629
S -4.1173228631 0.1386592963 -2.0047329403
C -4.0250670266 -0.9354711838 -0.5778810950
C -2.9197835816 -0.7534171801 0.1356138283
H -2.6298010960 -1.2420263753 1.0489269616
H -2.2639455971 1.7058217295 -1.7430289445
O -0.0618875703 -0.0245440114 -2.1883049589
C -1.4276531232 -0.0543955509 -2.7245474946
S -1.5287951286 0.8328584372 -4.3089266418
C -0.4088704239 -0.3094203884 -5.2298873846
C 0.7688361391 -0.6888093830 -4.3788530827
C 0.9167712566 -0.5273360164 -3.0663412125
H -0.0260013689 0.2875269217 -6.0639303236
H 1.8317471189 -0.7440156392 -2.5315189412
H 1.6182587664 -1.1019740396 -4.9155791652
H -1.6740768893 -1.1075480737 -2.8746483409
C -1.1677549299 -1.5010709844 -5.8630923882
O -1.8173571237 -2.3248827337 -4.8977192194
C -0.1775020547 -2.3297652738 -6.7105915557
O 0.7459176782 -1.7711556257 -7.2897808801
N -0.4498543155 -3.6501781041 -6.7704845876
H -1.9040953664 -1.0839272000 -6.5624515737
H -2.7580141436 -2.0901860533 -4.8697691225
H -1.1936220065 -4.0485472006 -6.2169336379
H 0.1291886796 -4.2448266219 -7.3479877423
C -5.1452668008 -1.9258678297 -0.3862277150
O -6.4049447065 -1.3526700207 -0.7147050092
C -5.1310569564 -2.6214330174 0.9964366100
O -4.0828826412 -2.9260241245 1.5639869007
N -6.3625897810 -2.8933657455 1.4695231415
H -4.9978159645 -2.7252458826 -1.1238915539
H -6.5484325575 -0.5688392866 -0.1558978646
H -7.1816015701 -2.6904916199 0.9119373582
H -6.4577009643 -3.4311798286 2.3208124081
