139
# extracted from Terachem optimization
Co 0.2996910577 0.1131874565 -0.0147978454
O 1.0702599681 2.2247920456 -0.3760754809
C 2.4892160073 2.4002004876 -0.2137673263
C 2.5855587432 3.5575232455 0.7552947666
C 1.4295216499 4.2280997061 0.7883932628
C 0.4611450592 3.5350971149 -0.1537986537
H -0.5409480907 3.3894036517 0.2415436536
H 0.3864584642 4.0524046737 -1.1185172466
H 3.4962976007 3.8149863202 1.2821713441
H 2.9261141767 2.6832826855 -1.1893959550
N 2.4156534036 0.0460655185 0.3163514889
C 3.1439799887 1.1105893951 0.2222354974
C 4.5799890895 1.1404617609 0.4776002352
C 5.2958969334 -0.0066049819 0.4893959770
C 4.5257308636 -1.2967408433 0.3288843244
C 3.1011030093 -1.1475822163 0.8550833511
H 4.5357915381 -1.5837970368 -0.7304703835
H 5.0225800519 -2.1121918958 0.8637257035
H 5.0654765213 2.1062819198 0.5753694641
H 3.1127959608 -1.0443863553 1.9508549223
H 2.5171535649 -2.0366722359 0.6254729034
C 6.8189660479 -0.0328646688 0.6794755584
N 7.4050130531 1.1096969728 1.3463662877
C 7.5662131822 -0.2979828822 -0.6694734315
O 6.8866445813 -1.3449663656 -1.2999412401
C 7.6945535711 0.9257687005 -1.5711514099
Cl 9.2729162121 -0.8643552185 -0.2570714066
H 7.0338243709 -0.9109552225 1.2986103458
H 7.2282873693 1.9948630779 0.8822392047
H 7.1147071784 1.1789051567 2.3162812829
H 7.3967231245 -1.6076513860 -2.0850978630
H 8.2832524178 1.7133850554 -1.0964162357
H 8.2031054545 0.6501399524 -2.4998894194
H 6.6975516248 1.3054676724 -1.8247649531
C 1.2062727225 5.5081117782 1.6024851555
N 1.8851184462 5.5019741939 2.8934708932
C -0.2848554927 5.8599878834 1.8388204638
O -0.9540497581 4.7265421273 2.2191657507
C -0.5336343266 7.0595378559 2.7332776341
Cl -0.9235892515 6.4380635316 0.0762025472
H 1.6141940931 6.3486783920 1.0320193538
H 1.8494948841 4.5901307991 3.3390712847
H 2.8522624064 5.8004366636 2.8242666269
H -1.8689112529 4.9347378686 2.4875775166
H -0.0009705886 7.9410251988 2.3710748201
H -1.6027241687 7.2922495613 2.7613718599
H -0.1780728530 6.8228768050 3.7386003485
O -0.3566496858 -2.0015264454 0.2069175802
C -0.8119610709 -2.3111540019 1.5367858388
C -0.1577198321 -3.6399727855 1.8326933324
C 0.4450762903 -4.1391940537 0.7497676168
C 0.2726692758 -3.1686142182 -0.3935510385
H 1.2043310076 -2.8496392832 -0.8595148430
H -0.3841126473 -3.5615909458 -1.1797711028
H -0.2516406093 -4.1379477706 2.7892816475
H -1.9110918784 -2.4129299098 1.5189545531
N -0.0218257624 -0.0637851041 2.0567418605
C -0.5013088492 -1.1783282744 2.5090898734
C -0.8264897778 -1.3967800046 3.9144461318
C -0.9829244134 -0.3455288912 4.7520852435
C -0.7161719593 1.0317887676 4.1890491336
C 0.3109295304 0.9645495685 3.0626524541
H -1.6657583878 1.4548267496 3.8385706740
H -0.3609446760 1.7114085404 4.9703165790
H -1.0085964354 -2.4124877556 4.2499096243
H 1.3065670661 0.7198460439 3.4635401238
H 0.3926850080 1.9262260043 2.5523115079
C -1.3808206467 -0.5093806885 6.2255182728
N -1.1368920303 -1.8045242649 6.8210538342
C -2.8691991845 -0.0868387576 6.4816877759
O -3.0807963665 1.0952180725 5.7664481185
C -3.8959508837 -1.1585645820 6.1274078400
Cl -3.0399391572 0.2699422356 8.2838097190
H -0.7798369582 0.2192040686 6.7810762317
H -1.5964941229 -2.5708853194 6.3402380778
H -0.1468669987 -2.0101315486 6.9074550012
H -3.9548816901 1.4446818430 6.0098746973
H -3.7666874719 -2.0534209975 6.7389543122
H -4.9054407007 -0.7773892433 6.3078555978
H -3.8103967697 -1.4160631799 5.0645516476
C 1.0634547438 -5.5317770461 0.6472992136
N 1.1673737349 -6.2352867573 1.9167717652
C 2.4734484666 -5.5624868072 -0.0113735037
O 3.2513792829 -4.6093724006 0.6269189709
C 3.1140731239 -6.9415222245 -0.0357415324
Cl 2.2689596570 -5.0739947314 -1.8431845007
H 0.4201168361 -6.1346688366 -0.0049274072
H 1.6067955975 -5.6591062634 2.6297498458
H 0.2650659089 -6.5559299729 2.2546337581
H 4.1859174078 -4.7832760065 0.4192110673
H 2.4722496050 -7.6631371256 -0.5453710838
H 4.0689648534 -6.9004964987 -0.5702614712
H 3.2701784556 -7.2794946911 0.9902958200
O -1.9031232570 0.1752086623 -0.2773049845
C -2.2912500501 -0.1980482630 -1.6162740455
C -3.3970312360 0.7704649533 -1.9521598976
C -3.6901214590 1.5585463269 -0.9165269397
C -2.8078635455 1.1917975729 0.2478974026
H -2.2131376793 2.0242445952 0.6227813116
H -3.3646701630 0.7581870321 1.0869155122
H -3.8931327250 0.7778892347 -2.9140518556
H -2.6564459864 -1.2381280394 -1.5940685064
N 0.0920133586 -0.0227946888 -2.0806114570
C -1.0983154133 -0.1630526639 -2.5700872579
C -1.3596929973 -0.3217950386 -3.9959259693
C -0.3616175606 -0.6620810567 -4.8436854614
C 1.0250378753 -0.8128064811 -4.2576625891
C 1.1974159997 0.1036535906 -3.0496137917
H 1.1798376127 -1.8649763424 -3.9853325268
H 1.7910671117 -0.5871469776 -5.0061751330
H -2.3768952704 -0.2030334884 -4.3528011399
H 1.2312229770 1.1572672144 -3.3638305432
H 2.1304756022 -0.1108622394 -2.5241035851
C -0.5844384273 -0.8511396473 -6.3501983087
N -1.7543199776 -0.2143119076 -6.9146919471
C -0.5590951702 -2.3604641851 -6.7607610416
O 0.5265733385 -2.9377005094 -6.0966034637
C -1.8588156820 -3.1125136523 -6.4878980426
Cl -0.2504774711 -2.4303696735 -8.5789102960
H 0.2916102993 -0.4099878785 -6.8389411832
H -2.6280013320 -0.5163101402 -6.4956901371
H -1.6980446389 0.7981965975 -6.8740984988
H 0.6407074694 -3.8446566470 -6.4279960847
H -2.6905635457 -2.7023470311 -7.0640508711
H -1.7456437119 -4.1616547047 -6.7771048353
H -2.0916124065 -3.0744630039 -5.4167000314
C -4.7677344071 2.6395345560 -0.8954114761
N -5.3795332191 2.9045314991 -2.1878968282
C -4.2068898990 3.9825282160 -0.3399109275
O -2.9346992530 4.1268740976 -0.8185808736
C -5.0974198306 5.1959279419 -0.5297012155
Cl -4.1253802773 3.7510058852 1.6074168067
H -5.5704291033 2.3311278239 -0.2173472836
H -4.6842231618 3.0182693594 -2.9208992481
H -6.0321539257 2.1755157860 -2.4593127394
H -2.5782582488 5.0134396474 -0.6040571443
H -6.0983344284 5.0163478604 -0.1335455334
H -4.6653955429 6.0595931164 -0.0154406986
H -5.1816393809 5.4081422955 -1.5978882771
