127
# extracted from Terachem optimization
Co 0.4177485942 -0.0426099687 -0.2373094144
N 0.7985032619 1.8631987584 -0.1477209890
C 2.0206340362 2.2553286467 -0.3767227123
C 2.1231235957 3.6906664882 -0.5487469569
C 0.8670261084 4.1899468806 -0.4272735270
C -0.0571778835 3.0503008888 -0.1246422955
H -0.5406622876 3.1683933310 0.8527233361
H -0.8548938535 2.9576327177 -0.8632075882
H 3.0200243544 4.2507814423 -0.7791481782
O 2.4271479000 -0.0457924849 -0.5736583836
C 3.1049449607 1.2287319683 -0.5173524497
C 4.1243955390 1.2865894319 0.5906242997
C 4.5443279945 0.2005213832 1.2577506385
C 4.0185946377 -1.1750796434 0.9089061063
C 3.3594689569 -1.1641303527 -0.4573123797
H 4.5404918749 2.2614932955 0.8321293906
H 3.6044255818 1.3875872382 -1.4887582902
H 2.7553029298 -2.0509227269 -0.6384146213
H 4.0909035805 -1.0570065227 -1.2673245668
H 4.8373449265 -1.8990426298 0.9086042842
H 3.3093272717 -1.5104453492 1.6718080138
C 5.5682726787 0.4553403170 2.3463951794
O 5.8208589577 1.5957919067 2.6930369543
C 6.2554033875 -0.7612547979 3.0300994656
N 5.1940695419 -1.4866019418 3.7110309161
O 6.7265532503 -1.6539693890 2.0223971742
N 7.3721109155 -0.2783287947 3.7930438960
H 5.4235477788 -2.4776795601 3.7538741892
H 4.9894403660 -1.1342761402 4.6458126054
H 7.6683838263 -1.4294520615 1.9251091574
H 7.2684524318 0.7032824640 4.0361450872
H 7.5541763991 -0.8426118924 4.6166936704
C 0.5337558969 5.6291395914 -0.6707887732
O 1.4128763313 6.3925802339 -1.0321504421
C -0.9289766805 6.0982259006 -0.4410145105
N -1.0975240128 7.3503675548 -1.1232020603
O -1.8457422767 5.1504589961 -0.9537445677
N -1.1114223204 6.0132099736 1.0083600462
H -1.9095984532 7.8591548475 -0.7840352911
H -0.2643981891 7.9297718154 -1.0615890794
H -1.8980158333 5.3007031884 -1.9180688873
H -0.7156204177 6.8325183661 1.4648378984
H -2.1095476184 5.9782010259 1.2138850420
N 0.1785663800 -1.9817592075 -0.1860937301
C 0.0028721122 -2.6467683005 0.9221026869
C -0.2846472100 -4.0513706843 0.6727209630
C -0.2960985222 -4.2244577183 -0.6721118480
C 0.0009703078 -2.9032241495 -1.3095662738
H 0.8945268885 -2.9454631975 -1.9423746845
H -0.8057422800 -2.5504812819 -1.9584282013
H -0.4632783710 -4.8161211036 1.4178877067
O 0.3727072612 -0.6113158205 2.0891507827
C 0.0081309808 -1.9755876937 2.2742217218
C 0.8661164978 -2.6789483291 3.2995059055
C 1.6279572751 -2.0118949545 4.1797056773
C 1.7217538309 -0.5034421057 4.1427044825
C 0.5687031055 0.0910266472 3.3432666899
H 0.8021286558 -3.7624539491 3.3467495450
H -1.0417603149 -2.0179006472 2.6299471551
H 0.7574560006 1.1269668640 3.0574756768
H -0.3706115011 0.0443284777 3.9103295533
H 1.6989625772 -0.0968911121 5.1563045075
H 2.6861383132 -0.2227576804 3.7039527191
C 2.3644499255 -2.8596652275 5.1878460568
O 2.7596949849 -3.9731387577 4.8905172073
C 2.5749177713 -2.3210759629 6.6381664000
N 3.7976371511 -1.4975721434 6.6017863004
O 1.5397449092 -1.4227047015 7.0032462477
N 2.5461043858 -3.4547999068 7.5168664986
H 3.6985783948 -0.7530905483 7.2923389316
H 4.5937133711 -2.0731934891 6.8705181799
H 0.8860864210 -1.9734970090 7.4677049850
H 2.9301082369 -4.2837210016 7.0696941320
H 3.0132242243 -3.2722041525 8.4011856511
C -0.5601126858 -5.5439576692 -1.3261709477
O -0.7159844302 -6.5371190612 -0.6413127872
C -0.6320150530 -5.5852846460 -2.8774276465
N -1.2042825915 -6.8385529416 -3.2710995747
O -1.4867245399 -4.5175624393 -3.2970081126
N 0.6903521489 -5.2165687976 -3.3748972023
H -0.8472495606 -7.1810015426 -4.1573248245
H -1.1163170409 -7.5451153239 -2.5449146516
H -2.3383618169 -4.9574408990 -3.4672287590
H 1.3237449059 -6.0126029924 -3.3212709897
H 0.6040071012 -4.9374241013 -4.3518222822
N -1.5103252180 0.2323683723 -0.3471704513
C -2.1324419110 0.4473167681 -1.4710933355
C -3.5594390717 0.6532029218 -1.2732302255
C -3.7969031054 0.5573129085 0.0574152232
C -2.4936939998 0.2712256685 0.7378974388
H -2.2324980357 1.0412543363 1.4715812730
H -2.5085417695 -0.6808550562 1.2770003705
H -4.2929525433 0.8535465020 -2.0443777011
O -0.1076839463 0.0023824934 -2.6383716591
C -1.4270851870 0.5063033611 -2.8057858231
C -1.4360002121 1.9259504818 -3.3362183836
C -0.3416767266 2.5144310236 -3.8481647525
C 0.9490109920 1.7386933023 -4.0088666751
C 0.7164435049 0.2473398274 -3.8017316603
H -2.3683059748 2.4798818637 -3.2660371597
H -1.9835450296 -0.1489799444 -3.5011281914
H 1.6473611290 -0.2898667141 -3.6125395237
H 0.2240838032 -0.2050819346 -4.6725253472
H 1.3616861412 1.9138007951 -5.0057898559
H 1.6924342265 2.1241514695 -3.3032772523
C -0.4729761472 3.9770463404 -4.2056076953
O -1.3925286874 4.6425499657 -3.7472903010
C 0.6185686796 4.6638282098 -5.0761752948
N 1.7613128601 4.7780051196 -4.1638259564
O 1.0568617963 3.8054621270 -6.1142738646
N 0.0542551684 5.8503899026 -5.6506712307
H 2.6211091908 4.7877574149 -4.7117635774
H 1.7017165336 5.6398397678 -3.6246764197
H 0.5323225642 4.0665469486 -6.8912630324
H -0.6434348148 6.2719939928 -5.0429493609
H 0.7679256759 6.5301766863 -5.8997234305
C -5.1473740007 0.7654175533 0.6658531926
O -6.1081735241 0.9711024063 -0.0510822330
C -5.2606607896 0.7430455954 2.2154330076
N -6.6481472630 0.6867937167 2.5673612981
O -4.5988109384 -0.4317721119 2.6913859203
N -4.4419894001 1.8471987868 2.7114700392
H -6.8598798759 1.1613703811 3.4390301753
H -7.2491374808 1.0160342312 1.8160403961
H -5.3249799243 -1.0644795063 2.8339271609
H -4.9430506540 2.7286211624 2.6127901185
H -4.2557852973 1.6922430540 3.7020978791
