106
# extracted from Terachem optimization
Co -0.1427864600 -0.1772496106 -0.2016789666
N 0.0801467107 1.8781046375 0.2674311162
C 1.3063023317 2.2153945592 0.5690881487
O 1.3903103574 3.4072055903 1.1610659028
C 0.0913841312 3.8794215762 1.2505582201
C -0.7156447093 2.9465184384 0.6857107115
H -1.7890463426 2.9584886280 0.5589647774
O 2.0469034266 0.0325790781 0.0741759562
C 2.5366204981 1.4091873913 0.2791471482
N 3.5253411636 1.5595209865 1.2861452191
C 4.7078160057 0.6729387891 1.1189183623
C 4.2367613565 -0.7696915594 0.8536344895
C 3.1811065035 -0.8427387501 -0.2429847366
H 5.2542566845 0.7113283718 2.0646085489
H 3.1328896434 1.4767014232 2.2212744911
H 2.9645580585 1.7134498781 -0.6862733901
H 2.7818414404 -1.8518886075 -0.3323908637
H 3.5887234568 -0.5357798507 -1.2135660334
H 5.0615382579 -1.4358707028 0.5878675346
H 3.8053809084 -1.1614687910 1.7832522476
C 5.6627618734 1.3208341145 0.0684025517
N 6.2342481273 2.5057120365 0.6655710032
C 6.7111705093 0.2890362740 -0.3766940188
O 6.4990157115 -0.4856966373 -1.2645937897
Cl 8.2285517532 0.2669895307 0.5441355167
H 5.1049121925 1.4943485862 -0.8695273450
H 6.8274998179 3.0150854275 0.0152483854
H 5.4931484168 3.1279606879 0.9781866853
C -0.1244924231 5.1186082940 2.0751658944
N 0.7505117881 6.2364242642 1.8354461952
C -0.0802929523 4.6550803811 3.5660534783
O -0.0008340058 3.5043771316 3.8940577193
Cl -0.2059881471 5.9625629631 4.7349247411
H -1.1577406449 5.4493640087 1.9083187290
H 1.7331904862 5.9830420850 1.8060445639
H 0.5038779499 6.7617823844 1.0035585836
N 0.1289386835 -2.2737465701 -0.3550374730
C -0.0038364583 -2.9339235621 0.7640464090
O 0.3836273429 -4.2066772228 0.6722608127
C 0.8139478422 -4.3807120807 -0.6302042795
C 0.6398492260 -3.1955328794 -1.2679996018
H 0.8663297773 -2.9323957369 -2.2898891627
O -0.4640196947 -0.9092323732 1.8278748933
C -0.5505734686 -2.3649820011 2.0380335425
N 0.1144770079 -2.8516592717 3.1936015607
C -0.2878107909 -2.1643221996 4.4509141422
C -0.2403068751 -0.6361265992 4.2496915197
C -0.9862713731 -0.1974112106 2.9947061854
H 0.4457843291 -2.4521629307 5.2082383812
H 1.1260655796 -2.8399497039 3.0811865566
H -1.6232397768 -2.5868221333 2.1214333510
H -0.8361081261 0.8626091752 2.7878562070
H -2.0604983017 -0.4018722542 3.0794644182
H -0.6442837396 -0.0927724805 5.1077973939
H 0.8115813479 -0.3404996232 4.1559051143
C -1.6362233977 -2.7829081537 4.9376494352
N -1.3540569233 -4.1009770265 5.4593602556
C -2.2939339285 -1.8435785206 5.9592331021
O -3.0301925196 -0.9589329780 5.6249948402
Cl -1.8450048528 -2.0930633569 7.6572785336
H -2.3659911639 -2.7601397243 4.1091171684
H -2.2012423393 -4.5939500318 5.7314675947
H -0.8783517648 -4.6568828813 4.7524779982
C 1.4857816876 -5.6873392464 -0.9565221726
N 0.8148672655 -6.8945246881 -0.5484994656
C 2.9293547156 -5.5978774900 -0.3691244018
O 3.3757303201 -4.6015151870 0.1270629716
Cl 3.8686735734 -7.0723372351 -0.5392413804
H 1.6219257843 -5.7252523430 -2.0451229469
H 0.5167046788 -6.8843817592 0.4221058675
H 0.0314656118 -7.1326067667 -1.1472904874
N -2.2433033200 0.1383160148 -0.5679191421
C -2.4937485772 0.5303763126 -1.7869553038
O -3.6920461719 1.1086028333 -1.9185453479
C -4.2616672875 1.0874622365 -0.6582700512
C -3.3760902662 0.4760271525 0.1683119741
H -3.4525121142 0.2832262988 1.2271249864
O -0.2493560765 0.1534656497 -2.3421371012
C -1.5720449160 0.3700340684 -2.9595599185
N -1.6418710048 1.4586097793 -3.8674221828
C -0.6180003809 1.4095277616 -4.9471808446
C 0.7729621645 1.1626429434 -4.3281881077
C 0.7738726349 -0.0222622543 -3.3672997143
H -0.6311059779 2.3924615887 -5.4248632206
H -1.6175952024 2.3552822330 -3.3861959588
H -1.7980510700 -0.5606353238 -3.4966376535
H 1.7167771121 -0.1022208017 -2.8233550700
H 0.5885554487 -0.9646109109 -3.8976560945
H 1.5393053473 1.0005534148 -5.0901203421
H 1.0550778357 2.0662497840 -3.7737148073
C -1.1150154293 0.4163687236 -6.0443940542
N -2.2521706024 1.0234686450 -6.6948885856
C 0.0417809564 0.0805417031 -6.9988893137
O 0.8695491941 -0.7407546488 -6.7211147791
Cl 0.1159568643 1.0061793682 -8.5085617053
H -1.3133428843 -0.5661167066 -5.5788546266
H -2.6689153606 0.4114007545 -7.3918537150
H -2.9622511930 1.2550861534 -6.0046881629
C -5.5498333356 1.8449982627 -0.4772918445
N -6.5506283218 1.6946846472 -1.4987023019
C -5.1603137184 3.3407078240 -0.2396992438
O -4.0369287754 3.6988906849 -0.0134668745
Cl -6.5102482691 4.4610500171 -0.2633454441
H -5.9887317951 1.5250893664 0.4775396807
H -6.1915288168 1.8105131116 -2.4412269876
H -7.0601037407 0.8205531723 -1.4280455704
