106
# extracted from Terachem optimization
Co -0.2417336880 -0.3058626352 -0.1948045163
N 0.0796518440 1.7696935316 -0.3591234511
C 1.3065842870 2.1737880627 -0.1463967380
O 1.3876570786 3.4791636200 0.1083938977
C 0.0902127413 3.9599759425 0.0623656416
C -0.7155208291 2.9132221610 -0.2456934151
H -1.7878179405 2.8941071982 -0.3832950098
O 2.0374404393 -0.0625410275 -0.1171392209
C 2.5405066183 1.3188455044 -0.1673090045
N 3.4379458331 1.6711960363 0.8760101341
C 4.5982288347 0.7686950393 1.0135066602
C 4.1334364164 -0.7019009274 1.0347399718
C 3.1544628118 -1.0060517287 -0.0984621961
H 5.0493268212 1.0201135616 1.9787931631
H 2.9631192010 1.7862578229 1.7686142105
H 3.0658616581 1.4269598652 -1.1265449875
H 2.7265324342 -2.0006151013 0.0249999660
H 3.6434561569 -0.9580249592 -1.0808253015
H 4.9788022247 -1.3939883920 0.9636918971
H 3.6404687631 -0.8976023633 1.9943715751
C 5.6744273572 1.0437437886 -0.0953017902
N 5.6687529278 2.4046508003 -0.5256039831
C 7.0307305057 0.4898128861 0.4708046669
O 7.2867846171 -0.6723462823 0.4999209093
Cl 8.1322980373 1.7253887903 1.1149644556
H 5.4979062451 0.4056898613 -0.9690737363
H 6.3626862177 2.6330664063 -1.2328600356
H 5.6616437246 3.0988591026 0.2159131409
C -0.1420371852 5.3681379448 0.5418553290
N 0.7068864767 6.3986034514 0.0178003585
C -0.0854248221 5.2997850940 2.1051035243
O 0.0091249405 4.2657319677 2.7095671482
Cl -0.2089983892 6.8532549353 2.9006830312
H -1.1818086888 5.6248932256 0.3019364716
H 1.7000041392 6.1953258448 0.0403248237
H 0.4234788435 6.7600758312 -0.8850972883
N -0.0247205128 -2.3272720314 0.3276774835
C -0.1099360636 -2.6081323882 1.6014793362
O 0.2554002076 -3.8565801590 1.8879924717
C 0.6154212833 -4.4361712682 0.6854438136
C 0.4248634121 -3.4998828772 -0.2787126561
H 0.5984878283 -3.5721669284 -1.3411867778
O -0.5670363874 -0.3501451093 1.9822788841
C -0.5662144034 -1.6571517795 2.6656965490
N 0.2425803154 -1.7128887443 3.8297922718
C -0.0789774108 -0.6777767894 4.8342078582
C -0.1572123719 0.7143630794 4.1730848618
C -1.0072416542 0.6978695555 2.9025769029
H 0.7567365373 -0.6920830686 5.5408604304
H 1.2348898503 -1.6929239656 3.6044015323
H -1.6060888634 -1.8657362137 2.9531724905
H -0.9105749569 1.6376463821 2.3582305023
H -2.0686124122 0.5242377881 3.1245796787
H -0.5655118574 1.4600215796 4.8628754835
H 0.8583421152 1.0406842520 3.9197385588
C -1.3803331482 -1.0400665533 5.6352228459
N -1.5951855121 -2.4496796053 5.7032286509
C -1.2770449486 -0.2708403353 7.0007818373
O -1.4243169241 0.9083688836 7.0817296168
Cl -0.8759079959 -1.2783977629 8.4057102023
H -2.2598050852 -0.5810157348 5.1680586241
H -2.4138543061 -2.7321024379 6.2357332610
H -0.7841058970 -3.0047433132 5.9598070127
C 1.2582863101 -5.7977321610 0.7454955667
N 0.6175858884 -6.7943009881 1.5541628309
C 2.7458107558 -5.5557271508 1.1674888164
O 3.2313277278 -4.4591659801 1.2389094873
Cl 3.6562393423 -7.0157083160 1.4790340896
H 1.3149306651 -6.1788487127 -0.2825671087
H 0.3912201408 -6.4978169570 2.4973785795
H -0.1787598396 -7.2392655699 1.1127174726
N -2.3028927708 -0.0611961335 -0.7053248255
C -2.5472825116 -0.0006898454 -1.9862011376
O -3.7379170992 0.5329235869 -2.2706015176
C -4.3114680138 0.8509348829 -1.0519655354
C -3.4350019467 0.4659623939 -0.0894664295
H -3.5192720253 0.5556398608 0.9824171388
O -0.3338315413 -0.6483130851 -2.3922682352
C -1.6212665314 -0.4774783829 -3.0669187780
N -1.5949539371 0.4057486943 -4.1894740949
C -0.5608269241 0.0832166802 -5.2032175574
C 0.7961988608 -0.2059082969 -4.5253974707
C 0.6620417747 -1.1456608817 -3.3305552744
H -0.4630877116 0.9773653539 -5.8262321955
H -1.5239661113 1.3795520555 -3.9014373950
H -1.9216133928 -1.4785419470 -3.4086076970
H 1.5925292877 -1.2041847488 -2.7642132972
H 0.3729250126 -2.1593964571 -3.6381787214
H 1.5179732393 -0.6292463252 -5.2285301207
H 1.2030041122 0.7513752690 -4.1790604416
C -1.1032527608 -1.0375363524 -6.1503738764
N -2.3524315647 -0.6192805958 -6.6910521628
C -0.0384327107 -1.3497898669 -7.2378311565
O 0.9061747522 -2.0433126531 -7.0120669614
Cl -0.2983959021 -0.5652891563 -8.8006003864
H -1.1840398468 -1.9934921815 -5.6042547374
H -2.8507651961 -1.2222891796 -7.3351067566
H -2.9163907344 0.0124799948 -6.1343177906
C -5.5757382240 1.6712953532 -1.0718525382
N -6.5996338914 1.2988714622 -2.0041109246
C -5.1230144767 3.1605892896 -1.2474884960
O -3.9721740921 3.5042716851 -1.1790792083
Cl -6.4274856667 4.2945799166 -1.4986134458
H -6.0053969151 1.6305650794 -0.0619609605
H -6.2745913598 1.1561728741 -2.9542427768
H -7.1681209967 0.5165318663 -1.7000771366
