142
# extracted from Terachem optimization
Co 0.3456769542 -0.0265927313 -0.0808454107
O 0.2667482548 2.1695220266 -0.1439139817
C 1.4205463543 2.8547937803 -0.6932061690
C 1.6730375945 4.1208351923 0.0918528880
C 0.6064243896 4.8569324225 0.4520250184
C -0.7264352477 4.3083645221 0.1839588609
C -0.8555213657 2.9990495952 -0.0603653922
H 2.6825674916 4.4367158197 0.3186178339
H -1.7746477165 2.4383315933 -0.1581151000
H -1.6055331809 4.9369633876 0.2394079262
H 1.1647646604 3.1033703977 -1.7390611804
N 2.3573649217 0.6120999406 -0.4966654264
C 2.5801089230 1.8659743551 -0.7267377836
S 4.0952303575 2.6516621970 -1.1133944965
C 5.2533549970 1.2324464764 -1.4711714402
C 4.4898077747 -0.0760714636 -1.6335235737
C 3.5087097793 -0.3076646826 -0.4793752278
H 5.9074852516 1.1732011757 -0.5989925662
H 3.9323676328 -0.0918441217 -2.5780872204
H 5.2119444102 -0.8957951037 -1.6617451151
H 4.0255621911 -0.1950823540 0.4840324294
H 3.1234053709 -1.3266018991 -0.5166772345
C 6.1554808286 1.7211793944 -2.6566757581
N 5.4295652007 1.6919774418 -3.9012966761
O 6.5302882423 3.0531580442 -2.3435596270
C 7.4946208335 0.8981169903 -2.6557681232
N 8.2214453693 1.1017521487 -1.4702517706
O 7.1856530872 -0.4284216553 -2.8962944565
Cl 8.5056909720 1.4976319242 -4.1959553720
H 6.0656502693 1.9645604917 -4.6527555558
H 5.1497379327 0.7375801400 -4.1186248119
H 6.1385127227 3.6365803036 -3.0146328299
H 9.0867212390 0.5674916289 -1.4355895351
H 8.4274317863 2.0891194625 -1.3348262157
H 7.9910530008 -0.9071388622 -3.1567584240
C 0.7524975827 6.1574654164 1.2573292199
N 0.1007405223 6.1029297941 2.5456843409
O 2.1413229912 6.3571792363 1.4188656102
C 0.1686697266 7.3623763238 0.4342791140
N 0.7939775595 7.4417310458 -0.8219822354
O -1.2096280359 7.2458405126 0.3706905142
Cl 0.5126963067 8.9600304513 1.4678600206
H -0.8567937635 6.4393542528 2.5081914537
H 0.1277533549 5.1702473239 2.9454695604
H 2.2238665170 7.0329290463 2.1164364558
H 0.5311875529 8.2785141733 -1.3377051651
H 1.8055100748 7.4250518177 -0.7095064595
H -1.5925656313 8.0768418391 0.0410614687
O 0.4175149509 -2.2495861196 0.1130390508
C 0.0796925728 -2.6230313711 1.4873345002
C 0.4028827529 -4.0478526880 1.8325410541
C 1.1472296843 -4.8361327435 1.0416786400
C 1.6391727534 -4.2934150028 -0.2261039166
C 1.2497908013 -3.0826501381 -0.6292529378
H -0.0277686789 -4.4340140059 2.7478007387
H 1.4737240606 -2.6398469277 -1.5912060599
H 2.2510101818 -4.8935687081 -0.8855586384
H -1.0062969353 -2.4674446740 1.5522172537
N 0.7008313085 -0.3350078091 1.9617460868
C 0.6903594052 -1.5436057314 2.4131949843
S 1.2236612064 -2.1340453017 3.9679463282
C 1.5219930761 -0.5600655270 4.9350207213
C 0.8569349882 0.6371319708 4.2694509936
C 1.2195550652 0.7650244158 2.7907545062
H 2.6056181981 -0.4354610758 4.9601906996
H -0.2278081471 0.5678231263 4.4013162716
H 1.1852515257 1.5414075567 4.7892827032
H 2.3106340031 0.8049015348 2.6617063424
H 0.8203612171 1.6956324407 2.3797414857
C 1.0453159693 -0.8639404392 6.3913880374
N -0.3834283506 -1.0202007323 6.4357696772
O 1.7990588718 -2.0279880947 6.7294564995
C 1.4990896377 0.2856809982 7.3506438410
N 2.8811960443 0.4773484161 7.2934092111
O 0.7516704626 1.4141795119 7.1626860598
Cl 0.9929079078 -0.3767114431 9.1761311936
H -0.6331200536 -1.9733335146 6.1841639434
H -0.7464465882 -0.8288532775 7.3669064317
H 1.5273238864 -2.3000122543 7.6266331096
H 3.2262898912 1.1733772744 7.9493662490
H 3.3821927326 -0.3992016630 7.4169523561
H 0.9348415660 2.0543360871 7.8724544339
C 1.5294219893 -6.2602219977 1.4755155900
N 2.9493082930 -6.4032863996 1.6868462057
O 0.8266195959 -6.5039473227 2.6772001508
C 1.0529032184 -7.3119237765 0.4123500918
N -0.3346242390 -7.1992343255 0.2127618526
O 1.7986043096 -7.1697525436 -0.7477188401
Cl 1.5034766730 -9.0547868185 1.1116485671
H 3.4420694138 -6.7234820410 0.8591101749
H 3.3741145324 -5.5581409549 2.0547423346
H 1.2847343671 -7.2584000511 3.0906514552
H -0.7016276609 -7.9318114186 -0.3902587435
H -0.8162321257 -7.2312049539 1.1090240062
H 1.6934363411 -7.9646996738 -1.2976147710
O -1.8557838116 -0.0904404128 0.2659156784
C -2.6533622991 -0.4721969488 -0.8855268865
C -3.9073270146 0.3678646261 -0.9538306318
C -4.5348988106 0.6751936223 0.1966349640
C -3.8830825351 0.3061983594 1.4563838541
C -2.5871694083 -0.0243554622 1.4532996722
H -4.3204572562 0.6515866502 -1.9130527306
H -1.9700768554 -0.1946159770 2.3254435517
H -4.4236358382 0.3501953459 2.3927107123
H -2.9207025972 -1.5340172606 -0.7336509386
N -0.4985086814 -0.2085967381 -2.0102336074
C -1.7666218981 -0.4131849747 -2.1276828349
S -2.6902192463 -0.6968457020 -3.5964271154
C -1.3715882838 -0.9918072112 -4.8917306560
C -0.0090658581 -1.2228009916 -4.2567844971
C 0.3351407847 -0.1514301548 -3.2230334919
H -1.3662659830 -0.0877998877 -5.5017741324
H 0.0175066733 -2.2214149544 -3.8092240271
H 0.7426138221 -1.2030803588 -5.0504768352
H 0.2325763927 0.8526261805 -3.6590870176
H 1.3751710099 -0.2498252149 -2.9042895874
C -1.8965236922 -2.1616541811 -5.7832489786
N -1.8530079217 -3.4020013167 -5.0626477811
O -3.2006185247 -1.7130325948 -6.1574242043
C -1.0423670048 -2.2526572998 -7.0909802011
N -1.0606069988 -1.0426159076 -7.7883193456
O 0.2025055363 -2.7565070144 -6.8403770006
Cl -1.9677504473 -3.6575248359 -8.1824270065
H -2.6400034817 -3.4544757051 -4.4206682828
H -1.8931698543 -4.2000808326 -5.6926123482
H -3.6162449738 -2.4238033316 -6.6809291948
H -0.5780945069 -1.0767839734 -8.6826663008
H -2.0120758937 -0.7065024356 -7.9171194467
H 0.6529607121 -2.9513879444 -7.6805898803
C -5.8234902141 1.5133793668 0.2071352992
N -5.6380035852 2.8400150382 0.7519834619
O -6.2407537848 1.5934585588 -1.1381361681
C -6.9404115698 0.7787045325 1.0339914723
N -7.1079810030 -0.5337273537 0.5558577728
O -6.6332193206 0.8430167580 2.3855669335
Cl -8.5596605329 1.8004149855 0.8241455280
H -5.7549822742 2.8594023279 1.7608178204
H -4.7358116402 3.2281944434 0.4955530506
H -6.8999447678 2.3112721796 -1.1615620687
H -7.8879675317 -1.0142098972 0.9984659308
H -7.2504988602 -0.5263533774 -0.4520758331
H -7.4283088311 0.6411791606 2.9077690062
