124
# extracted from Terachem optimization
Co 0.2597279609 0.2246103748 0.0224911135
N 0.6589231381 2.1354444858 0.1407872496
C 1.9339345648 2.4773477208 -0.0187944397
N 2.0588690243 3.8155587337 0.0471186139
C 0.8073109819 4.3677443558 0.2571263646
C -0.0581761918 3.3039560758 0.3130797960
H -1.1258903797 3.2934574995 0.4537417318
H 2.8967883960 4.3816254451 -0.0196672540
O 2.2916955081 0.2001808660 -0.2784394048
C 3.0106645971 1.4543965449 -0.2426280820
C 4.0852122094 1.5004324065 0.8176457245
C 4.3954138648 0.4664388943 1.6073599823
C 3.6806491792 -0.8550969668 1.4218118698
C 3.1565156905 -0.9440749332 -0.0000820727
H 4.6401384792 2.4313291829 0.8828589931
H 3.4689939973 1.6059117604 -1.2340079746
H 2.5258691435 -1.8129146607 -0.1704557986
H 3.9682441723 -0.9299813733 -0.7350583233
H 4.3526422988 -1.6934243918 1.6175838712
H 2.8399834791 -0.9536347974 2.1173684795
C 5.4418433993 0.6464167702 2.7118035939
O 6.1716687471 1.8002947648 2.3983767652
O 4.7957985084 0.7986605744 3.9758076566
C 6.4105477803 -0.5499996912 2.9504648056
N 5.7815477600 -1.6305857210 3.6830783784
Cl 7.0673955093 -1.1698092364 1.3786085630
H 6.8127371787 1.9596087341 3.1122937156
H 4.3195452479 1.6462908924 3.9466740208
H 7.2934761651 -0.1366888588 3.4564287713
H 5.5000275894 -1.2537026679 4.5890431306
H 6.4691827016 -2.3638202454 3.8544752563
C 0.6967937370 5.8638507393 0.5048860882
O 0.4681933006 6.1508353820 1.8605489115
O 1.9731891438 6.3901656286 0.1922891432
C -0.3283725409 6.6115572502 -0.3886890425
N -0.0245927382 6.4456234595 -1.7897425305
Cl -2.0236986180 6.0320479528 -0.0453221118
H -0.4877890428 6.1107104341 2.0425080987
H 2.1217932685 7.1362343299 0.8011868735
H -0.3354003512 7.6525114645 -0.0446762296
H -0.5894189107 7.0891827305 -2.3432791286
H 0.9529957124 6.7085958119 -1.9285152266
N 0.0093389214 -1.7176009306 -0.0008852378
C -0.2116437854 -2.4152929503 1.1100085379
N -0.4328522819 -3.7066738026 0.7898388933
C -0.3626403095 -3.8460794577 -0.5863888435
C -0.0897557432 -2.5949041893 -1.0664185579
H 0.0185478553 -2.2676315578 -2.0852465177
H -0.6350138597 -4.4696531508 1.4240282618
O 0.1766404255 -0.4762390398 2.3805722129
C -0.2839030000 -1.8269992283 2.4943980951
C 0.5163911950 -2.6187725887 3.5010691787
C 1.2910982180 -2.0322565742 4.4180486398
C 1.3747606158 -0.5263260320 4.5272708596
C 0.2957881817 0.1451601171 3.6855637730
H 0.4306041284 -3.6997799009 3.4757940023
H -1.3489068226 -1.8068218770 2.7940212749
H 0.5196289854 1.1942766094 3.4817265359
H -0.6810910752 0.0873431096 4.1839773359
H 1.2466889730 -0.2437203316 5.5791009873
H 2.3761041076 -0.1831456718 4.2407522609
C 2.1439884118 -2.8751356795 5.3640291758
O 2.0750136239 -4.2017047553 4.9129645059
O 3.4876998313 -2.4165013376 5.3681291305
C 1.7313268268 -2.7879306519 6.8666634049
N 1.9830880209 -1.4815057185 7.4185542377
Cl -0.0302391841 -3.1845805735 7.0670514438
H 2.5706892181 -4.7594812530 5.5359373498
H 3.8382562511 -2.4713465621 4.4576599141
H 2.2480906511 -3.6107472117 7.3832114844
H 2.9718225012 -1.2671499362 7.2949325570
H 1.7756851023 -1.4767425076 8.4153301202
C -0.5644145071 -5.2161358095 -1.1923609276
O 0.3874961865 -6.1333454404 -0.7044666419
O -1.8151379390 -5.6598912475 -0.7110860304
C -0.6013408673 -5.2305337621 -2.7417050990
N -1.5824655107 -4.3225361420 -3.2525160861
Cl 1.0631100006 -4.7953566234 -3.4159169970
H 1.2142529906 -6.0307507130 -1.2102648795
H -1.8050526887 -6.6338039275 -0.7635553539
H -0.7099141984 -6.2798275159 -3.0426154973
H -1.7903640166 -4.5261111468 -4.2276137815
H -2.4399982760 -4.4330038230 -2.7123062450
N -1.6634045998 0.4613437795 -0.0277040267
C -2.3144070955 0.4800220544 -1.1863471874
N -3.6434106009 0.4879275360 -0.9472261183
C -3.8527903608 0.4703516475 0.4216563653
C -2.6050545290 0.4541162605 0.9810967872
H -2.3329508639 0.4184120187 2.0208412009
H -4.3892568276 0.4825187337 -1.6325115053
O -0.2803902237 0.2513540271 -2.3483829303
C -1.6718970763 0.5081101539 -2.5516979422
C -1.9263140169 1.8318274982 -3.2393493053
C -0.9544175692 2.5636423271 -3.7906570314
C 0.4767452109 2.0720346770 -3.7805912455
C 0.5222994363 0.5757082523 -3.5013444234
H -2.9530676874 2.1813656572 -3.2686054428
H -2.0985718924 -0.3144817465 -3.1534149848
H 1.5259886466 0.2264144718 -3.2521810709
H 0.1537568353 -0.0001582981 -4.3604447610
H 0.9654906045 2.2800146350 -4.7378669406
H 1.0567246816 2.6224628709 -3.0291851600
C -1.2433378442 3.9276642722 -4.4076577195
O -2.4379985565 4.3939822347 -3.8264015413
O -0.1698076953 4.8126643391 -4.1517760492
C -1.3587915818 3.9608896143 -5.9758780082
N -0.2039311589 3.6728536549 -6.7679193895
Cl -2.7255463838 2.8886690092 -6.5113454289
H -2.7998440309 5.1032147002 -4.3840216902
H -0.2193451631 5.0822874719 -3.2052573624
H -1.6651728886 4.9867148338 -6.2117375780
H 0.1170948981 2.7141991957 -6.6770984945
H 0.5496650679 4.3208218960 -6.5522188752
C -5.2642696785 0.4757789799 0.9601094997
O -5.9474649246 1.6596021051 0.6251720408
O -5.9300603459 -0.5655760586 0.2777866089
C -5.3569348567 0.1989047778 2.4844654266
N -4.6995879034 -1.0204450836 2.8426331120
Cl -4.6135375806 1.6128778139 3.4236406246
H -5.6989123705 2.3589545398 1.2563693418
H -6.8816433445 -0.3531650119 0.3045309225
H -6.4169737783 0.2721100502 2.7546469794
H -5.0080047516 -1.3420436087 3.7574266853
H -4.9389846421 -1.7335314798 2.1545401873
