124
# extracted from Terachem optimization
Co 0.0844897748 0.1311036690 0.1769009086
N 0.7660192128 2.0938844420 0.0684435499
C 2.0571160238 2.3342089908 -0.1343554879
N 2.2271460913 3.6113074438 -0.5322076032
C 0.9897760965 4.2232247282 -0.5960353902
C 0.0895990744 3.2667522367 -0.2098723245
H -0.9848145007 3.3222622775 -0.1385579541
H 3.0906501420 4.0971689572 -0.7426814187
O 2.4149845123 0.0573416173 0.1815172251
C 3.1319213880 1.2871294156 0.0185891175
C 4.0779931457 1.5925570077 1.1579420502
C 4.2953832056 0.7632464392 2.1847892763
C 3.6012057152 -0.5818538193 2.2209322431
C 3.2021703852 -0.9878087281 0.8103299200
H 4.6170355427 2.5320573447 1.0851160798
H 3.7117431088 1.2333131300 -0.9197958872
H 2.5567232896 -1.8654048995 0.7927887616
H 4.0856446138 -1.1774875161 0.1890636564
H 4.2569019449 -1.3481798740 2.6391849770
H 2.7146180073 -0.5488863355 2.8635875315
C 5.1918976510 1.2212994223 3.3401444371
O 5.9949305330 2.2603516496 2.8489845659
O 4.3867399543 1.6857426018 4.4237013280
C 6.0847421291 0.1358087004 4.0109130369
N 5.3293633384 -0.7277358565 4.9044418212
Cl 6.9408371892 -0.8595503228 2.7659394395
H 6.5235609570 2.6098623518 3.5867407859
H 3.9393399931 2.4914051240 4.1128334002
H 6.8956386939 0.6740100451 4.5197814400
H 5.0532445980 -0.1534327113 5.7023147663
H 5.9471121924 -1.4571004327 5.2601833399
C 0.8542115046 5.6399944399 -1.1113704964
O 0.1100814399 6.4603886391 -0.2554365978
O 2.1683250843 6.1608383671 -1.1684346881
C 0.3084282357 5.6797682252 -2.5719119706
N 1.0948865096 4.8258637620 -3.4239552279
Cl -1.4416173700 5.1235297196 -2.5888828839
H -0.8292846820 6.4306476038 -0.5074419479
H 2.1017081577 7.1054328886 -0.9419529568
H 0.2413056355 6.7349506852 -2.8687000212
H 0.6428642318 4.6580075571 -4.3227644800
H 1.9898970323 5.2829441172 -3.5943766459
N -0.1047418104 -1.8935233255 0.6376046972
C -0.4318664351 -2.1935930385 1.8893722032
N -0.5394178568 -3.5290891874 2.0291932140
C -0.2666639302 -4.1238284241 0.8081305326
C 0.0003179494 -3.0912372532 -0.0494114006
H 0.2593774255 -3.1448087959 -1.0939312503
H -0.7307446789 -4.0530188390 2.8748270754
O -0.1532436108 0.0725553151 2.4109062725
C -0.6691743346 -1.1561603138 2.9528300967
C -0.0167609064 -1.5106001729 4.2630058743
C 0.6854155279 -0.6306621231 4.9813765628
C 0.8228539279 0.8093114659 4.5424572416
C -0.1466670575 1.1298683865 3.4132427016
H -0.1561286980 -2.5206661301 4.6328602958
H -1.7593114693 -1.0412624820 3.0927326789
H 0.1237494978 2.0350521728 2.8680021168
H -1.1706597390 1.2371315197 3.7926963007
H 0.6076511996 1.4558373026 5.4025168998
H 1.8587242415 1.0219885317 4.2532212508
C 1.3778700776 -1.0651066987 6.2707692207
O 1.3271803964 -2.4674861477 6.3155269095
O 2.7164175434 -0.6034691209 6.3022111544
C 0.7576955619 -0.4628661812 7.5696744764
N 0.9741015903 0.9585330012 7.6623959518
Cl -1.0294470909 -0.7935617014 7.6364071884
H 1.7203010145 -2.7563100658 7.1562292766
H 3.1981460465 -0.9625966220 5.5304889829
H 1.1640999484 -1.0437189473 8.4111378435
H 1.9769150461 1.1343043305 7.6160905415
H 0.6258980158 1.3089653554 8.5525792654
C -0.3553897282 -5.6309760218 0.7125956988
O 0.1319464071 -6.2131353552 1.9032691442
O -1.7278582685 -5.9441534240 0.6486203577
C 0.3484362214 -6.2346910008 -0.5271753651
N -0.1927037551 -5.6928281676 -1.7384451834
Cl 2.1559134849 -5.8932067963 -0.4422951729
H 1.1012586508 -6.2966562364 1.8398109229
H -1.8221138631 -6.8618665816 0.9649169475
H 0.3020841383 -7.3265826803 -0.4231865468
H 0.1143449000 -6.2319380038 -2.5451392739
H -1.2100112291 -5.7428841744 -1.6861551866
N -1.9462764902 0.4212081082 -0.2324493668
C -2.3139115143 0.0855804708 -1.4641989720
N -3.6512054656 0.2084666843 -1.5926564374
C -4.1702058080 0.6511625435 -0.3873594574
C -3.0948624156 0.7753128500 0.4503286040
H -3.0869065362 1.0987448639 1.4782823174
H -4.2186744363 0.0694797775 -2.4205367025
O -0.0382699816 -0.2181079972 -1.9681911129
C -1.3530664431 -0.3718364132 -2.5364352871
C -1.5393405518 0.3988423225 -3.8199090853
C -0.5591408383 1.0525596200 -4.4495628436
C 0.8471691397 1.0174534756 -3.8959181605
C 1.0139524942 -0.1769336667 -2.9649227640
H -2.5357367662 0.3717550036 -4.2487039280
H -1.5159575312 -1.4468445319 -2.7264112795
H 1.9389632904 -0.1397356082 -2.3875495498
H 0.9843911529 -1.1150059867 -3.5315176936
H 1.5701083796 0.8788041315 -4.7066810581
H 1.0884410232 1.9638056745 -3.3950698633
C -0.8713522320 1.9044825879 -5.6872597006
O -2.1871562400 1.5917660396 -6.0639912728
O -0.7734088627 3.2838898095 -5.3581427248
C 0.0768236580 1.7136430363 -6.9158051021
N 1.2695396675 2.4502280415 -6.9022652379
Cl 0.3043320390 -0.1614610973 -7.1466499516
H -2.4412625826 2.1980493847 -6.7802919662
H -1.4393866039 3.4487845110 -4.6660530323
H -0.4867783238 1.9799639010 -7.8096373060
H 1.7534274579 2.4187705896 -7.7944619470
H 1.9154614585 2.2174855483 -6.1572354388
C -5.6686986283 0.8241286148 -0.2676467672
O -6.2044249186 1.2011830450 -1.5191647396
O -6.1967610677 -0.4462698946 0.0351081112
C -6.1057447819 1.8136277020 0.8414672701
N -5.6181459870 1.3916679893 2.1215136170
Cl -5.4731357191 3.4982845951 0.4560960740
H -6.1579967222 2.1716849850 -1.6000584345
H -7.1300353203 -0.4388288479 -0.2478065075
H -7.1936238255 1.9359588743 0.7565580597
H -6.0587930402 1.9215918850 2.8702605467
H -5.8509674389 0.4062428273 2.2437873871
