136
# extracted from Terachem optimization
Co -0.0393570616 -0.1325750174 -0.0220960687
O -0.0930345138 2.0670209877 -0.0784297686
C 0.9370731084 2.6741575727 -0.9228246268
C 1.1645161995 4.1064521614 -0.5125137085
C 0.1101467114 4.8541114185 -0.1443822206
C -1.1898607491 4.1878729789 -0.0195319666
C -1.2430388255 2.8537975718 0.0390466183
H 2.1557137941 4.5356066165 -0.5609325844
H -2.1208176430 2.2557934576 0.2382993172
H -2.0999596089 4.7640924147 0.0828458338
H 0.5306891789 2.6333944801 -1.9504708125
N 1.9595331999 0.4961516657 -0.4704315178
C 2.1621545503 1.7782365113 -0.8386237341
C 3.4318017086 2.2501146179 -1.1695189302
C 4.5468203989 1.4071394236 -1.0904871683
C 4.3260222838 0.0914687642 -0.6655259154
C 3.0330463587 -0.3146021808 -0.3750143641
H 3.5739284970 3.2748201708 -1.4886232242
H 2.8384070812 -1.3321893962 -0.0522199173
H 5.1546939553 -0.5983602393 -0.5638904656
C 5.9583404630 2.0062789224 -1.3459991532
N 5.8126550487 3.1444815143 -2.2232456982
O 6.4795619708 2.4376130267 -0.1039346052
C 6.9661619090 0.9145919503 -1.8581173928
N 7.3289420411 0.0061796524 -0.8388152154
O 6.3824294376 0.3200051218 -2.9613637387
Cl 8.5412432377 1.8229752897 -2.4929964110
H 6.7338318547 3.5473646439 -2.3935054777
H 5.4516269939 2.8501657425 -3.1302707456
H 6.1517258040 3.3417207127 0.0424990912
H 8.0432920552 -0.6506687063 -1.1470931167
H 7.6728006256 0.5122547344 -0.0249115485
H 7.0623824448 -0.1477582564 -3.4753823764
C 0.2679862512 6.3202050131 0.2851997917
N -0.0686549515 6.5424081420 1.6719913384
O 1.6222656967 6.6490726267 0.0487550905
C -0.6251090923 7.2443083469 -0.6190274145
N -0.3077188756 7.0482690971 -1.9751270751
O -1.9609318216 7.0282067070 -0.3208991904
Cl -0.2591110454 9.0645783060 -0.0903328264
H -1.0375016129 6.8193202175 1.7967626493
H 0.1447236542 5.7377972609 2.2525827377
H 1.7799735705 7.4591818944 0.5672561514
H -0.7916319404 7.7023468887 -2.5861439477
H 0.6959796385 7.1442539965 -2.1151416565
H -2.4973453822 7.7461360306 -0.6985018349
O 0.0360588384 -2.3298436876 0.2442128522
C -0.3387189403 -2.6252951010 1.6381977402
C -0.0647379595 -4.0449100769 2.0429416528
C 0.7449787716 -4.8514657050 1.3409351293
C 1.3453055155 -4.3381061984 0.1068206480
C 0.9648786988 -3.1562802150 -0.3828886914
H -0.5678215342 -4.4022153084 2.9331348147
H 1.2696858040 -2.7416641203 -1.3352646589
H 2.0409402126 -4.9390400682 -0.4631609138
H -1.4227610347 -2.4493035407 1.6454434367
N 0.2630862330 -0.2954586700 2.0505631052
C 0.2785426807 -1.5531876376 2.5439922647
C 0.7478316517 -1.8291847118 3.8248942140
C 1.1849135686 -0.7867051088 4.6525234850
C 1.1551039640 0.5123517657 4.1275694538
C 0.7056589303 0.7096498901 2.8314176321
H 0.7996893786 -2.8532049480 4.1720369515
H 0.6893747945 1.6945459821 2.3774736662
H 1.4733058184 1.3518126522 4.7331141208
C 1.7948908025 -1.0877953803 6.0484395828
N 1.6277855344 -2.4933421753 6.3366484928
O 3.1740252745 -0.7813307191 6.0117233850
C 1.1873656540 -0.1242934029 7.1342407190
N 1.6802821552 1.1936176700 7.0174443038
O -0.1864398380 -0.2221424048 7.0242052653
Cl 1.6551943620 -0.8307012778 8.8660770262
H 2.0758801841 -2.6902295366 7.2311915096
H 0.6392349700 -2.7112293543 6.4643606060
H 3.6256699332 -1.5598372156 5.6425497337
H 1.2930635802 1.8117992138 7.7278700633
H 2.6957035125 1.1965807766 7.0901796131
H -0.6028193338 0.1074008779 7.8387795826
C 1.0915854441 -6.2657662009 1.8298067070
N 2.5057245948 -6.4359861656 2.0607454168
O 0.3734561705 -6.4541685705 3.0325974189
C 0.6029452611 -7.3402605723 0.7937327336
N -0.7829724815 -7.2183036857 0.5872443779
O 1.3528411286 -7.2335297102 -0.3665703387
Cl 1.0302347869 -9.0693710237 1.5403079414
H 2.9972123073 -6.7932490943 1.2476214005
H 2.9485652207 -5.5893419033 2.4032428735
H 0.8035157095 -7.2128251037 3.4682897861
H -1.1550721561 -7.9645362330 0.0043536477
H -1.2674813472 -7.2221714200 1.4824686770
H 1.2385461707 -8.0396728159 -0.8979986586
O -2.1939568690 -0.2924784894 0.0004031014
C -2.8457258071 -0.9081095795 -1.1508270403
C -4.1163499181 -0.1642815967 -1.4864024360
C -4.8681190516 0.3432683868 -0.4948795832
C -4.3507341457 0.2469901718 0.8740729752
C -3.0600224107 -0.0381555073 1.0723512459
H -4.4243445254 -0.0857719809 -2.5208563221
H -2.5338017916 -0.0426634165 2.0177830664
H -4.9939710148 0.4423686177 1.7221157143
H -3.0775890399 -1.9448503832 -0.8487705643
N -0.5980282808 -0.4955464561 -2.0710233201
C -1.8475284234 -0.9406141978 -2.2946006051
C -2.2473774207 -1.4361579095 -3.5360891332
C -1.3482205084 -1.4722640602 -4.6040439769
C -0.0601729218 -0.9671020381 -4.3731623474
C 0.2669093552 -0.5043108480 -3.1100447545
H -3.2609381132 -1.7913570907 -3.6818552753
H 1.2619513264 -0.1277290684 -2.9010343207
H 0.6742025123 -0.9612430789 -5.1697987455
C -1.8294562766 -1.9503600712 -6.0015838865
N -3.0732110072 -2.6667316896 -5.8367654478
O -2.0492720869 -0.8156427173 -6.8146502571
C -0.7027481760 -2.7677999241 -6.7335085294
N 0.3376011911 -1.9388727987 -7.2062179741
O -0.2858724284 -3.7465169733 -5.8496401224
Cl -1.5110417508 -3.6876436923 -8.2239861669
H -3.4115206830 -2.9369108316 -6.7597444472
H -2.9147545511 -3.5339837188 -5.3234045981
H -2.9308859778 -0.4702392325 -6.5912466286
H 1.0361698935 -2.4608220263 -7.7316286900
H -0.0412285887 -1.2006512520 -7.7963761354
H 0.1788805393 -4.4459479768 -6.3396631712
C -6.1472755072 1.1439400462 -0.7922724285
N -5.9839147853 2.5622501454 -0.5655816863
O -6.4446909540 0.8961825339 -2.1501517679
C -7.3452701126 0.6220320789 0.0791194472
N -7.5067047162 -0.7610080499 -0.1085577887
O -7.1505274246 0.9864777110 1.4036952676
Cl -8.9094522096 1.5927905523 -0.4985836142
H -6.2069616133 2.8269131612 0.3892934914
H -5.0522204077 2.8790077035 -0.8146474414
H -7.0951254993 1.5780436097 -2.3997761290
H -8.3340010837 -1.1282928624 0.3557432415
H -7.5540824789 -0.9783027635 -1.1017814502
H -7.9900184193 0.9078238586 1.8885370892
