142
# extracted from Terachem optimization
Co -0.1243374590 0.0276003058 -0.2288335462
O -0.1131835626 2.1152269222 0.0828416104
C 1.1461590991 2.8294975201 0.1962538423
S 0.8264467478 4.5461121436 -0.3934531610
C -0.8871826785 4.3103689470 0.0563751512
C -1.1844130072 3.0291251880 0.2775810282
H -2.1050947866 2.5632722590 0.5864154841
H 1.4033002027 2.8513042682 1.2626729421
O 1.9198999806 0.6680042993 -0.4877855863
C 2.2213035348 2.1040641360 -0.6063018654
C 3.5960224742 2.4037536918 -0.0815533069
C 4.5878818672 1.5106134067 -0.2408924939
C 4.2404984925 0.2337804830 -0.8784135158
C 2.9632163921 -0.1513173936 -0.9562481110
H 3.7731274953 3.3376627255 0.4414874578
H 2.5897133636 -1.0964425644 -1.3228675763
H 5.0160313168 -0.4127108923 -1.2687163689
H 2.1223210114 2.3452789298 -1.6766842004
C 5.9780333267 1.7888098029 0.3863192052
O 5.9503006336 3.0565819730 0.9968204461
C 6.2390907646 0.7555559690 1.4907568059
C 7.0957442151 1.8154746326 -0.7298590101
N 7.2144269340 0.5681579186 -1.4154899841
N 6.8084241423 2.9366061735 -1.6040149945
Cl 8.7159711025 2.2808650006 0.0985597682
H 6.1991997709 3.6921274296 0.2929408280
H 6.1920629688 -0.2729651924 1.1177086126
H 7.2161721116 0.9336470543 1.9438061536
H 5.4740587027 0.8717936396 2.2639776990
H 7.8891430408 0.6448705563 -2.1753506169
H 7.5493438722 -0.1659899800 -0.7931459036
H 7.6489079103 3.2806386768 -2.0611646460
H 6.1337037415 2.6593942490 -2.3157015236
C -1.7695681500 5.5708401815 -0.0105188273
O -0.9190055245 6.6669457591 -0.2509394336
C -2.7217733531 5.4677017496 -1.2083192388
C -2.4966986786 5.7764280698 1.3706322751
N -3.3984836265 4.6983424332 1.6506231126
N -1.4715233935 5.9568462994 2.3795730111
Cl -3.3889733615 7.4126721420 1.3007857823
H -0.5764379258 6.9423367825 0.6253156910
H -3.3684443600 4.5874996186 -1.1374843744
H -3.3336280146 6.3697473427 -1.2736896779
H -2.1322014763 5.3857312197 -2.1255031806
H -3.7961730681 4.8140892913 2.5818338842
H -4.1780593252 4.7006832569 0.9944983248
H -1.7997622551 6.5256071313 3.1552124203
H -1.1674130588 5.0509826093 2.7315270713
O 0.4798532049 -2.0270550789 -0.6702940063
C 0.9455981074 -2.7294522487 0.5370220949
S 0.7704358279 -4.5448430431 0.2497360778
C 0.0381309844 -4.2229744881 -1.3403108524
C -0.0079235217 -2.9282713895 -1.6504949773
H -0.3026741878 -2.4612621866 -2.5759665129
H 1.9939125512 -2.4579287276 0.6864537716
O 0.2045379847 -0.7633383417 1.7249897112
C 0.0965359083 -2.2432951179 1.7152626371
C 0.4892107517 -2.8651258175 3.0223946422
C 1.3350094104 -2.2602546268 3.8745070626
C 1.7805164628 -0.9031515690 3.5394188802
C 1.2118291755 -0.2244524559 2.5410989750
H 0.1217277897 -3.8638316383 3.2287582593
H 1.4171290096 0.8035276836 2.2811846841
H 2.5099546104 -0.3927877449 4.1533987339
H -0.9524412189 -2.4401789950 1.4751665557
C 1.8524600452 -3.0308563172 5.1145165473
O 1.1746512669 -4.2613303027 5.2005423874
C 3.3406210883 -3.3481193417 4.9012317847
C 1.5761927883 -2.2272472567 6.4436669063
N 2.3023957422 -0.9990651035 6.4965695570
N 0.1386760129 -2.0563741045 6.5675413036
Cl 2.0347958924 -3.3380576726 7.8878877418
H 0.3574970056 -4.0829588938 5.7081931059
H 3.9334792997 -2.4505697068 4.6968069229
H 3.7405425578 -3.8551902708 5.7821497390
H 3.4366957001 -4.0228215943 4.0462835254
H 2.0644884055 -0.4800385509 7.3407293860
H 3.3075264540 -1.1635967370 6.5227553138
H -0.1331240913 -1.9417289889 7.5409467333
H -0.1455389717 -1.2255760819 6.0495850318
C -0.4806704713 -5.4834498225 -2.0569300147
O 0.0972626888 -6.5935377290 -1.4058072655
C -1.9988398796 -5.5837585619 -1.8626099241
C -0.0167642315 -5.4837898027 -3.5602561424
N -0.5434121060 -4.3558649828 -4.2716840188
N 1.4312712837 -5.5541888366 -3.5693703224
Cl -0.5714737189 -7.0919213197 -4.3253586118
H 0.9720968945 -6.7272611332 -1.8291380891
H -2.5194380820 -4.7193055473 -2.2866207669
H -2.3705608797 -6.5011444089 -2.3230991114
H -2.2181103861 -5.6246627261 -0.7921791248
H -0.1792914324 -4.3483511746 -5.2237064678
H -1.5581088256 -4.4153871659 -4.3458822920
H 1.7850564580 -6.0086212601 -4.4066541841
H 1.8304465933 -4.6204424284 -3.4959792029
O -2.2657551264 -0.0090878114 0.1829646977
C -3.0447260719 0.2408356073 -1.0377047029
S -4.7338760065 -0.4651050265 -0.7953316626
C -4.2500719058 -1.0739711813 0.8079919905
C -3.0021611208 -0.7493346716 1.1409729209
H -2.4866932654 -0.9070764930 2.0746750948
H -3.0942362793 1.3245447012 -1.1735724620
O -0.9328830509 0.1678907364 -2.2112419424
C -2.3013328378 -0.4009343818 -2.2128105668
C -3.0047177616 -0.2273751036 -3.5232637200
C -2.6718535140 0.7367237140 -4.3988071573
C -1.5095208041 1.5742893022 -4.0775037020
C -0.7084273827 1.2695648327 -3.0533425264
H -3.8519067256 -0.8745734901 -3.7153307155
H 0.2074130334 1.7810997817 -2.7938867189
H -1.2343255881 2.4053814272 -4.7123719161
H -2.1542271211 -1.4583123177 -1.9745357556
C -3.5614481046 0.9593943015 -5.6502531428
O -4.5521275841 -0.0407031808 -5.6779383430
C -4.2830027334 2.3065428071 -5.5051682280
C -2.7145420371 0.8442102052 -6.9735061209
N -1.7344183807 1.8763861225 -7.0797236736
N -2.1549262692 -0.4953143670 -7.0278369284
Cl -3.9110791016 0.9007563734 -8.4230523242
H -4.1608617699 -0.7942441182 -6.1640015454
H -3.5896846000 3.1358755109 -5.3304595576
H -4.8726441397 2.5094456587 -6.4018798427
H -4.9659641949 2.2466792301 -4.6533425013
H -1.1696139253 1.7461542579 -7.9177018061
H -2.1703178383 2.7943529064 -7.1530517598
H -1.9640970980 -0.7721090942 -7.9879399239
H -1.2806028751 -0.5138952253 -6.5034531208
C -5.3284588581 -1.9224991588 1.5073095635
O -6.5566988017 -1.6278560319 0.8807058355
C -5.0405285051 -3.4080563085 1.2551245896
C -5.4303852825 -1.5297915855 3.0268583853
N -4.1990855762 -1.7769671726 3.7201833241
N -5.8667541523 -0.1480022129 3.0911902795
Cl -6.8350020684 -2.5033033454 3.7728032976
H -6.9026742395 -0.8278748543 1.3310856316
H -4.0681500788 -3.7077467950 1.6587004644
H -5.8296295687 -4.0172601607 1.6997819677
H -5.0346736865 -3.5894604604 0.1768409111
H -4.2772640059 -1.4642490062 4.6871922589
H -3.9944915801 -2.7749730915 3.7506633037
H -6.3720195324 0.0490425573 3.9506781237
H -5.0648714608 0.4751166738 3.0172552334
