130
# extracted from Terachem optimization
Co 0.2782711046 0.2653252259 0.2335432366
O 0.4443418226 2.2544354826 -0.2210506496
C 1.7658684617 2.4016061000 -0.8060030283
S 2.0906121305 4.1853686679 -1.0292802389
C 0.6275387178 4.6549752897 0.0224405257
C 0.2752313054 3.3633066564 0.7435402113
H 0.9602838964 3.2199921109 1.5772857051
H -0.7555852513 3.3326457992 1.0695381066
H -0.1691336307 4.9799964611 -0.6500491555
H 1.7226420281 1.9474054226 -1.7886147699
N 2.1841459631 0.4094946754 0.4536128043
C 2.6914192022 1.5698498078 0.0670396833
N 3.9061862087 1.9915848421 0.3490004490
C 4.9014218618 1.1891114974 1.0816739318
C 4.5071536475 -0.2838926305 0.9755039865
C 3.0151269151 -0.4580493633 1.3089721195
H 4.8526102395 1.5062984630 2.1313119688
H 4.7213496346 -0.6608840899 -0.0269677447
H 5.0964377527 -0.8814819926 1.6772570812
H 4.2313939053 2.8940529184 0.0057000870
H 2.8130170631 -0.2289042087 2.3624020888
H 2.7243770758 -1.4962429052 1.1458679096
C 6.3162538873 1.6353094929 0.6224865353
O 6.2435070017 3.0389959765 0.7372101972
C 6.7473266721 1.1716521614 -0.7948779084
N 7.0460560067 -0.2074776380 -0.8209063229
O 5.7761444314 1.5136446892 -1.7264390504
Cl 8.3118887038 2.2138768579 -1.2157494537
H 7.0381437248 1.2076207164 1.3328009872
H 7.0904545340 3.4226286661 0.4434006865
H 7.2604424549 -0.5308322538 -1.7623421980
H 7.8290825694 -0.4482097062 -0.2161273374
H 6.2049218940 1.6695050653 -2.5857469587
C 0.9894164280 5.8050994771 0.9859291268
O 1.9388115339 5.3707702379 1.9575587831
C -0.2326706851 6.3738425193 1.7779510254
N -1.0670700641 5.3533020385 2.3713846815
O 0.2166483628 7.2378298260 2.7488509327
Cl -1.2050239769 7.3682853208 0.5397091325
H 1.3906404679 6.6402823441 0.4040247081
H 2.8212651756 5.6763060021 1.6943450380
H -1.4032992918 5.7317628977 3.2563407765
H -1.8863807024 5.1466285327 1.7996420873
H 1.0859843985 6.9065508308 3.0464457438
O 0.0391657707 -1.6631407110 0.4049223283
C -0.3951640698 -2.1196580903 1.7135538694
S 0.6357836277 -3.5627249676 2.1295977013
C 0.4578198093 -4.0484793132 0.3562635518
C 0.6887466298 -2.7400438640 -0.3989494563
H 1.7445060502 -2.4959942410 -0.4887432910
H 0.2065895201 -2.7364468139 -1.3710102213
H -0.5687551586 -4.3903915690 0.2029054454
H -1.4498982385 -2.4052741587 1.6212211010
N 0.0058142815 0.2176911782 2.2217302960
C -0.2532165344 -0.9865914136 2.6917469079
N -0.4112982717 -1.3031394320 3.9695516356
C -0.4231744510 -0.3299398620 5.0726571744
C -0.7483337711 1.0334697067 4.4743854438
C 0.1239345491 1.2904497185 3.2345621804
H 0.5860799279 -0.3168786413 5.5032399022
H -1.8050967777 1.0771342531 4.2022892679
H -0.5676226895 1.8288398594 5.2026913250
H -0.6561360478 -2.2501305913 4.2559178182
H 1.1806386247 1.4062468017 3.5111485100
H -0.2059361898 2.2271502740 2.7982965692
C -1.3235940063 -0.9023124460 6.2043987966
O -0.9064978679 -2.2472427800 6.2795804979
C -2.8524636969 -0.7536422154 5.9825305094
N -3.2773359073 0.5723100581 6.2123505599
O -3.1976733989 -1.2024160010 4.7134688822
Cl -3.6791489079 -1.9578471941 7.2405613682
H -1.0802043758 -0.3526117957 7.1241837005
H -1.4496068544 -2.7113521842 6.9431031137
H -4.2689192119 0.6944647215 6.0146257389
H -3.1072786130 0.8725401694 7.1703349831
H -4.1225616499 -1.5047365199 4.7292032633
C 1.3978981972 -5.2134693273 0.0081606634
O 2.7164345145 -4.8435274593 0.3701923890
C 1.4089207028 -5.6137291090 -1.4945752564
N 1.9290401067 -4.5451578640 -2.2858055830
O 2.1531384112 -6.7687459006 -1.6816315070
Cl -0.3511674509 -5.9463279392 -2.0354283259
H 1.0567325085 -6.0862914278 0.5820065299
H 3.2775077200 -5.6375192776 0.3238493929
H 2.8868502084 -4.3784149392 -1.9750498789
H 1.9626305280 -4.8208790463 -3.2663841711
H 1.7016502596 -7.5494592622 -1.3108291221
O -1.7670361711 0.3240021999 0.0024733724
C -2.1321984658 -0.3277277748 -1.2312453516
S -3.7657441167 0.3200081932 -1.7714463879
C -3.9352585218 1.3696570708 -0.2508600076
C -2.5005499223 1.5806961633 0.2043019264
H -2.0420270322 2.3667031013 -0.3929347003
H -2.4219859244 1.7854654220 1.2693496830
H -4.5274905101 0.8190500124 0.4831955658
H -2.2301394613 -1.3910493530 -0.9941623248
N 0.2224644208 -0.0419851029 -1.7479227063
C -0.9950332444 -0.2124269422 -2.2319202648
N -1.2731230618 -0.4348366409 -3.5050548524
C -0.2652239074 -0.7308089542 -4.5379393884
C 1.0057759537 -1.2080685637 -3.8363709985
C 1.3440457009 -0.2299595308 -2.7002913620
H -0.0644703748 0.2050975077 -5.0740910655
H 0.8834213919 -2.2245689736 -3.4591657279
H 1.8406605932 -1.2223625315 -4.5430046714
H -2.2329737087 -0.5455114930 -3.8282660712
H 1.6141897403 0.7344783049 -3.1497220257
H 2.2084556364 -0.5820874210 -2.1330697341
C -0.9356262586 -1.6539928714 -5.5960336248
O -2.1860151031 -1.0357596989 -5.7991896276
C -1.0481409243 -3.1506522281 -5.1935747129
N 0.1848394589 -3.8310172357 -5.3782930613
O -1.5216103731 -3.2474808475 -3.8977739294
Cl -2.3838400647 -3.9120760386 -6.3488846217
H -0.3203526632 -1.6145703664 -6.5058036092
H -2.7160383280 -1.5820721459 -6.4088713136
H 0.0928240282 -4.8179574318 -5.1384530945
H 0.4852975590 -3.7921189665 -6.3514338964
H -1.6864997903 -4.1830679478 -3.6829144309
C -4.6607906550 2.6838523744 -0.6271804078
O -3.8216895343 3.5314977850 -1.4067319745
C -5.1350750071 3.5409364792 0.5862896079
N -4.1120711584 3.7713653048 1.5882724324
O -5.6196600974 4.7434630639 0.1366022119
Cl -6.5612756242 2.6045545092 1.3294944148
H -5.5720101271 2.4336594373 -1.1798362617
H -3.9746903699 3.3476627524 -2.3473107685
H -4.3558026198 4.6568355395 2.0344486859
H -4.1536158763 3.0621075566 2.3186485721
H -5.1002996125 4.9885315767 -0.6538981398
