130
# extracted from Terachem optimization
Co 0.0469153904 0.1349220538 0.1528305015
O -0.0276416177 2.4791196874 0.3764641633
C 1.1123767200 2.9606861846 -0.3222293241
S 1.1902574418 4.7813480214 -0.0283372333
C -0.0400811520 4.6721847371 1.3656534258
C -0.1350371014 3.1716264689 1.6448594735
H 0.6763736963 2.8673968481 2.3105759761
H -1.0943967406 2.8814282562 2.0640789135
H -0.9868946670 5.0680249067 0.9920754648
H 0.9319030204 2.8064322874 -1.3846367245
N 2.0999086302 0.8278037209 0.1719247265
C 2.3185190057 2.1171256605 0.0998914764
N 3.4779207966 2.7313246247 0.3320785406
C 4.6942531331 2.0117668718 0.7099817842
C 4.6100752244 0.6090811449 0.1100102313
C 3.2627658502 -0.0243142937 0.4915320915
H 4.7060600225 1.9300572340 1.8063835369
H 4.7080477290 0.6669902459 -0.9765206467
H 5.4272019925 -0.0185595686 0.4778186016
H 3.5422246726 3.7428264808 0.2788586349
H 3.2450756309 -0.2667272753 1.5634968734
H 3.1506081274 -0.9684913318 -0.0465408408
C 5.9254045988 2.8969526034 0.3919277463
O 5.5845456946 4.1445507395 0.9550876200
C 6.3080459664 3.0004931395 -1.1074920107
N 6.9365197967 1.8339057524 -1.5727895535
O 5.2193778560 3.3693562390 -1.8637205663
Cl 7.5781111490 4.5098626605 -1.2026131980
H 6.7909992227 2.4486481066 0.9018869631
H 6.2814097365 4.7840112004 0.7173581044
H 7.1195357407 1.8582952521 -2.5732990057
H 7.8050181827 1.6319580210 -1.0838597266
H 5.5254206447 3.7604780021 -2.7002212054
C 0.4391370182 5.5163992893 2.5614699728
O 1.5911663105 4.9459392904 3.1829954017
C -0.6107701426 5.6835926206 3.7007260610
N -1.2912362814 4.4790390674 4.0708917896
O -0.0223527843 6.2401270890 4.8058875162
Cl -1.8645155773 6.9400536408 3.0120159882
H 0.6645386832 6.5290701648 2.2122961547
H 2.3778625605 5.2432944777 2.6977092054
H -1.5859988065 4.5752402018 5.0413541509
H -2.1207821526 4.3277945168 3.5023475962
H 0.9325162618 6.0393318583 4.7476650760
O -0.0373273834 -2.1034829375 -0.2671080979
C -0.7501713777 -2.5964481273 0.8653239859
S -0.7028576517 -4.4300222717 0.7598588740
C 0.7734143631 -4.3944608583 -0.3762018734
C 1.1544510221 -2.9096817036 -0.4821009963
H 1.9038967384 -2.6684298808 0.2734521478
H 1.5173393077 -2.6308365484 -1.4687202856
H 0.4393579572 -4.7983402154 -1.3341138822
H -1.7856728875 -2.2697026944 0.7510764482
N 0.0454344823 -0.6540500722 2.0685661325
C -0.2061855153 -1.9419960971 2.1413457803
N -0.0754579952 -2.6954420846 3.2279188743
C 0.2281934646 -2.1590549389 4.5603945682
C -0.1188510490 -0.6717873783 4.5666137966
C 0.4859042478 -0.0086706809 3.3214564432
H 1.3079010514 -2.2773162081 4.7239048390
H -1.2031671888 -0.5376466605 4.5746433208
H 0.2771580357 -0.1954420351 5.4683981707
H -0.3102664598 -3.6829163039 3.1850500872
H 1.5834694501 -0.0285827364 3.3681189632
H 0.1866832973 1.0389743343 3.2861031038
C -0.4085512185 -3.0908160804 5.6234734235
O 0.0357393050 -4.3721833055 5.2303414089
C -1.9512501939 -3.0101608125 5.7521167045
N -2.3678654295 -1.8369932359 6.4035623406
O -2.5497944294 -3.1882312474 4.5234480556
Cl -2.4478827396 -4.5766534700 6.8330661035
H 0.0050194241 -2.8036409864 6.6010872584
H -0.3838213638 -5.0326503476 5.8123976074
H -3.3808398949 -1.7453814313 6.4331982212
H -2.0051413575 -1.7637338381 7.3510658672
H -3.4661070082 -3.4886984988 4.6523224906
C 1.8917223291 -5.2911622628 0.1903387455
O 2.4690562417 -4.7289881123 1.3692915395
C 3.0823241163 -5.5404262948 -0.7851138396
N 3.5350418997 -4.3773477083 -1.4930529326
O 4.1324941905 -6.1072843389 -0.1138843339
Cl 2.4038441173 -6.8128545360 -2.0272370446
H 1.4722156741 -6.2764129725 0.4151218865
H 1.9165361342 -4.9797717169 2.1274710237
H 4.5367017026 -4.4835620344 -1.6451447066
H 3.0914784608 -4.2955655029 -2.4044887235
H 3.9949904617 -5.9358210340 0.8378714718
O -2.2018718049 0.1459998428 -0.0579645978
C -2.5099155269 -0.3049810028 -1.3700188057
S -4.2788910219 0.0896488850 -1.6708590512
C -4.2985923384 1.3985922939 -0.3509819064
C -2.8813994950 1.4056497170 0.2445087091
H -2.2993552630 2.2228230375 -0.1761116543
H -2.8905087233 1.4660201075 1.3306758107
H -5.0495350656 1.0858660015 0.3783779608
H -2.4135179617 -1.3945616120 -1.3658464704
N -0.2712405880 0.4357585541 -1.9397035222
C -1.4808702257 0.2040289249 -2.3794467098
N -1.8612069386 0.2563736898 -3.6600445993
C -0.9179358213 0.2365111146 -4.7892400074
C 0.4758259801 -0.0954954785 -4.2542434604
C 0.7231363947 0.7348217905 -2.9871809708
H -0.9036099676 1.2426541663 -5.2277864402
H 0.5560613452 -1.1605986939 -4.0245250788
H 1.2303209178 0.1356618979 -5.0125081194
H -2.8283309320 0.0695731887 -3.9079724122
H 0.6800935988 1.8042712112 -3.2426798027
H 1.7176282103 0.5393286187 -2.5781801502
C -1.5209445199 -0.6471696002 -5.9155643237
O -2.8248083545 -0.1316758238 -6.0555540662
C -1.5117521610 -2.1776616880 -5.6608194843
N -0.2259458628 -2.7328303612 -5.7975792063
O -2.0998539028 -2.4825892815 -4.4480151390
Cl -2.6954919964 -2.9236623506 -7.0353902966
H -0.9191797210 -0.4785534268 -6.8212044821
H -3.3027649049 -0.6678601084 -6.7140588280
H -0.2168506516 -3.7327038191 -5.6071726118
H 0.1692815384 -2.5782113293 -6.7224393647
H -2.4579973590 -3.3859095220 -4.4884729111
C -4.7111062107 2.7527644820 -0.9627744994
O -3.7146698733 3.2471601702 -1.8583207727
C -4.9732778561 3.8902078651 0.0773181003
N -4.1232396603 3.8913019091 1.2406278614
O -4.9037039303 5.1159675554 -0.5142800670
Cl -6.7696592755 3.5597690095 0.6499719697
H -5.6512018895 2.6140456707 -1.5039679607
H -3.8354603109 2.7994962140 -2.7118745731
H -4.0379480512 4.8628967153 1.5420086602
H -4.5613439415 3.3764469952 2.0014812448
H -4.6081414723 4.9942891537 -1.4365029657
