136
# extracted from Terachem optimization
Co 0.7389375419 0.3940114741 -0.0168545056
O 1.3737035555 2.3064367627 0.4557103830
C 2.7682345104 2.5017634200 0.8466325419
C 3.3769802813 3.3835091201 -0.2534376136
C 2.1512133371 4.0598908761 -0.9460550184
C 0.9560958385 3.5959162373 -0.0994457945
H 0.7406113972 4.2746861051 0.7285968829
H 0.0457976513 3.4170423729 -0.6686578450
H 2.0485542965 3.5894620949 -1.9302465978
H 3.9430305116 2.7813715949 -0.9674571368
H 4.0713090704 4.1034614670 0.1799325339
H 2.7615699911 3.0295637752 1.8076887323
O 2.8282524164 0.2593956872 0.0164752208
C 3.3955572748 1.1277467364 1.0649136016
O 4.7553873317 1.2190406539 0.9504244494
C 5.4376704031 -0.0420155621 1.2243076146
C 4.7523307598 -1.1158643853 0.4203819314
C 3.5663717441 -0.9236707927 -0.1526825174
H 5.3488691870 -0.2483485647 2.2985452901
H 3.0571471687 -1.6154543493 -0.8100062086
H 5.2679781324 -2.0581597994 0.2775227933
H 3.0892668582 0.6624338791 2.0101376957
C 6.9154572421 0.1770514830 0.8546292512
C 7.9556755955 -0.4559009945 1.7916502156
N 9.2160134632 -0.4022021002 1.2060942948
C 7.9755929935 0.1100342350 3.2058358991
Cl 7.3608164985 -2.3495081108 2.0337476643
H 7.1029994768 1.2568783560 0.8722210559
H 7.0974959330 -0.1596967104 -0.1715164666
H 9.9693035394 -0.7373033204 1.7987068409
H 9.2811264435 -0.8175553519 0.2822558112
H 7.0011523347 0.0340173820 3.6920433881
H 8.6945587030 -0.4340393740 3.8239244890
H 8.2760224012 1.1631013034 3.1626251886
C 2.2611785463 5.5781323840 -1.2401537701
C 2.1353917100 6.6019893415 -0.0910315900
N 0.8078202707 6.6109498131 0.4396153193
C 3.1543440003 6.4728952013 1.0388143223
Cl 2.5294839750 8.2644329339 -0.9320796091
H 3.2190563861 5.7463058478 -1.7403670208
H 1.4958618649 5.8369130965 -1.9820826087
H 0.7162892695 7.2983313485 1.1859701619
H 0.1288387029 6.8589090862 -0.2783185891
H 4.1751059242 6.4598603482 0.6505326490
H 3.0708076536 7.3216334743 1.7236790342
H 2.9692199251 5.5580856484 1.6139269906
O 0.4557930921 -1.5811220794 0.1159985214
C 0.7820753615 -2.1854155537 1.4132868943
C 0.1528137133 -3.5825970929 1.3734657538
C -0.9874451028 -3.4448806963 0.3386656447
C -0.3575119646 -2.5169522195 -0.6975116497
H 0.3258681964 -3.0292230635 -1.3733966450
H -1.0413092244 -1.9069161927 -1.2814835253
H -1.7871384456 -2.8821683060 0.8322124363
H -0.2209474338 -3.8877420884 2.3539704605
H 0.8960879259 -4.3151657214 1.0488409176
H 1.8735184091 -2.2169782483 1.4813087203
O 0.6478084495 0.0756430899 2.1890264118
C 0.2859659844 -1.2873212406 2.5469796536
O -1.0794265621 -1.3825035549 2.7521713336
C -1.5050823539 -0.6690439431 3.9564764712
C -0.8324043133 0.6774867358 3.9700470366
C 0.1207519553 1.0016283687 3.1014614519
H -1.1960637910 -1.2639225379 4.8260985155
H 0.6037675355 1.9658862348 3.0214096679
H -1.1576962740 1.4012275500 4.7076547293
H 0.8399794369 -1.5188995536 3.4680822627
C -3.0408008492 -0.5922551219 3.8882201873
C -3.8177679648 -0.7592665991 5.2058703857
N -5.1542601304 -0.3587673220 4.9961755093
C -3.7537899057 -2.1660086767 5.7896278692
Cl -2.9493218883 0.3813582571 6.5223895709
H -3.3797255979 -1.4088367684 3.2399047087
H -3.3402386123 0.3428116446 3.4033817734
H -5.7592647875 -0.5747155793 5.7848915246
H -5.2392563516 0.6321061056 4.7861720352
H -2.7234041964 -2.4904634623 5.9500586395
H -4.2662912214 -2.2049066344 6.7545141791
H -4.2466054607 -2.8622796466 5.1018001409
C -1.6370737024 -4.7726174332 -0.1368698601
C -1.0249304771 -5.5390939216 -1.3264550556
N -1.1972076199 -4.7899351825 -2.5295476228
C 0.4242459780 -5.9910935915 -1.1609586067
Cl -2.0395431211 -7.1503536211 -1.3903910234
H -1.6842641795 -5.4463581829 0.7233905472
H -2.6785399354 -4.5629408600 -0.4046150900
H -0.7724060382 -5.2384159474 -3.3411420954
H -2.1859559574 -4.6674419932 -2.7411484917
H 0.5546067271 -6.5505463425 -0.2320402141
H 0.7119353972 -6.6476514173 -1.9869505833
H 1.1052542790 -5.1312928348 -1.1600842485
O -1.2189174527 0.6600778283 -0.6044251506
C -1.5261157401 1.3327932159 -1.8596814755
C -2.9984710039 0.9999263872 -2.1690204873
C -3.4636717408 0.1191168594 -0.9762460203
C -2.4759183254 0.4885789531 0.1329226451
H -2.7205644999 1.4224858411 0.6433776899
H -2.2943389003 -0.2917871703 0.8708035539
H -3.2398681092 -0.9184725505 -1.2545466473
H -3.0990023984 0.4595201961 -3.1123692160
H -3.5782924287 1.9203179776 -2.2470725871
H -1.3955032805 2.4099048251 -1.7087717844
O 0.7927746220 0.9628901897 -2.1955727789
C -0.4899202451 0.8813464435 -2.8798854344
O -0.7172282384 -0.4077184743 -3.3227712894
C 0.1983136024 -0.7995493457 -4.3944218764
C 1.5749792753 -0.2752786064 -4.0829225414
C 1.8227428010 0.4964511194 -3.0280463098
H -0.1704816167 -0.3594546083 -5.3297233205
H 2.7897357279 0.8653554659 -2.7123259452
H 2.3831964319 -0.5600730347 -4.7474503507
H -0.4351707922 1.5913454418 -3.7174169828
C 0.1461384763 -2.3378171083 -4.4708499205
C 0.0224648654 -2.9733695307 -5.8634476986
N 0.2070156506 -4.3740351964 -5.7395023898
C -1.2846020052 -2.6637255225 -6.5841204072
Cl 1.4183496958 -2.1867868769 -6.9453902171
H -0.7199819192 -2.6761315394 -3.8946995627
H 1.0274195407 -2.7596328973 -3.9749914255
H 0.0446447122 -4.8619100238 -6.6179638492
H 1.1419877728 -4.6110258709 -5.4157487149
H -1.4375663752 -1.5894182749 -6.7062876204
H -1.2877490821 -3.1121866673 -7.5813567575
H -2.1193209433 -3.0817469154 -6.0101376733
C -4.9804748569 0.1333577996 -0.6618098386
C -5.5938467288 1.3080147837 0.1281308052
N -5.1427247188 1.2901815552 1.4873464354
C -5.4137450414 2.6983272683 -0.4764085023
Cl -7.4646858706 0.9715748133 0.0493274642
H -5.5140166801 0.0457944654 -1.6126317299
H -5.2207505846 -0.7794272319 -0.1044129952
H -5.5529167266 2.0655566135 2.0061669833
H -5.4358136196 0.4333009573 1.9560068875
H -5.7494585245 2.7198906343 -1.5155107197
H -6.0074252345 3.4308972621 0.0780050400
H -4.3633180435 3.0075284170 -0.4245459929
