115
# extracted from Terachem optimization
Co 0.2423997531 -0.0068423983 -0.2098513046
O 0.5128299553 2.1664153656 -0.2425872606
C 1.8047007146 2.6003252687 0.2449152055
C 2.2792296103 3.7429370996 -0.6922752938
C 1.3624826871 3.5901576065 -1.9237004973
C 0.0661593884 3.1204121671 -1.2734083243
H -0.4711182192 3.9305109603 -0.7793967752
H -0.6114249968 2.5812754057 -1.9313109640
H 1.7461804755 2.7563333510 -2.5293523604
H 3.3401327882 3.6618431892 -0.9378151567
H 2.1130762907 4.7075600995 -0.2109757318
H 1.6803834526 2.9700012886 1.2723817979
N 2.3421305394 0.1917525915 0.1127417537
C 2.7453346584 1.4190062714 0.3339660570
O 3.9632058498 1.7676780541 0.6687185367
C 4.9982208748 0.7672731715 1.0346960594
C 4.5831215756 -0.5850933632 0.5608367351
C 3.3183195551 -0.8167530711 0.1516081344
H 5.0449158244 0.7999349463 2.1338475776
H 2.9767814243 -1.7953569270 -0.1659391855
H 5.3292216507 -1.3721147512 0.5943737352
C 6.3344400042 1.3038622258 0.4989713027
C 7.5602667763 0.7756173304 1.2673529943
O 7.5624696004 -0.6051982951 1.1608064337
O 8.7307465164 1.3641358555 0.8417161450
Cl 7.4068230399 1.2848424382 3.0365868094
H 6.3323777022 2.3922376762 0.5924609535
H 6.4609256916 1.0477431612 -0.5593785934
H 8.3284256989 -0.9557117745 1.6543900412
H 9.0119358645 0.9347555164 0.0128173437
C 1.2863317978 4.8104335983 -2.8694043771
C 0.4102733569 5.9787898428 -2.4140101155
O -0.9201010033 5.5641005660 -2.4527987852
O 0.8204918216 6.3938674720 -1.1527432631
Cl 0.6217705795 7.3706589509 -3.6025185835
H 2.2985907233 5.1879522979 -3.0342890652
H 0.8976594275 4.4920303852 -3.8399302023
H -1.5061479067 6.3413500810 -2.4425523966
H 0.4745114538 7.2842635662 -0.9639818979
O 0.2425722881 -2.0498299022 0.5237775171
C 0.4535543201 -2.2239312318 1.9450549987
C -0.3526627748 -3.4772097249 2.3679179483
C -1.2305622057 -3.7902716141 1.1339011263
C -0.3618193951 -3.2789531245 -0.0139318630
H 0.4379595223 -3.9746561930 -0.2712070446
H -0.9035936669 -2.9907664914 -0.9152239397
H -2.1233328763 -3.1516951081 1.1842681867
H -0.9463624538 -3.2994877036 3.2672738493
H 0.3291415312 -4.3037523660 2.5682014200
H 1.5268829734 -2.3743040188 2.1277839816
N -0.1713990534 0.1434203305 1.9242662518
C 0.0717861798 -0.9327243353 2.6296108431
O 0.0378912374 -1.0171321536 3.9356518092
C -0.1517294444 0.1790393304 4.7974472453
C -0.6092987124 1.3339527600 3.9744277992
C -0.5906668774 1.2813668029 2.6231909403
H 0.8429577795 0.3684388079 5.2297073971
H -0.9087448572 2.1102609419 2.0024168677
H -0.9411870290 2.2192605548 4.5061807226
C -1.0806493829 -0.2497277664 5.9463074654
C -0.9155231367 0.5976190433 7.2225600083
O -1.2086879858 1.9109092542 6.8992814400
O -1.6669953443 0.1033482091 8.2668417917
Cl 0.8305389005 0.4480791769 7.8028758311
H -0.8506768787 -1.2849322608 6.2087783246
H -2.1303436579 -0.1945108493 5.6355319720
H -1.1029758676 2.4614567254 7.6987275690
H -2.5926567092 0.3835041016 8.1431946069
C -1.7408354005 -5.2475894200 1.0496981818
C -0.7443411209 -6.2948593147 0.5425416772
O -0.5685044215 -6.0907837490 -0.8238451247
O 0.4457805440 -6.1929053375 1.2615723343
Cl -1.4561811220 -7.9711961436 0.8029681242
H -2.0793079935 -5.5508916008 2.0436939338
H -2.6082144512 -5.2965095594 0.3864350383
H -0.1053268469 -6.8563541107 -1.2076574763
H 0.9226077715 -7.0411255943 1.2361353705
O -1.7805411315 0.3367094060 -0.8576531709
C -2.1094328201 0.2563699115 -2.2594815147
C -3.4128005564 -0.5821293230 -2.3746719578
C -3.7090066664 -1.0090510762 -0.9158203718
C -3.0211919994 0.0932730355 -0.1096786964
H -3.5979072926 1.0187841122 -0.0874515523
H -2.7278506166 -0.1828261384 0.9021235010
H -3.1596950816 -1.9401010413 -0.7249639558
H -3.2931924195 -1.4410484872 -3.0390240475
H -4.2159469101 0.0426525869 -2.7658437330
H -2.2883473461 1.2715324905 -2.6404413374
N 0.2296526769 -0.4696110513 -2.3435724812
C -0.9003389255 -0.2777980841 -2.9785510186
O -1.1157548388 -0.4758716514 -4.2536775309
C -0.0534979823 -0.9202032623 -5.1902897923
C 1.2060772305 -1.1838576635 -4.4401156268
C 1.2995180156 -0.9586826034 -3.1127706755
H 0.0632902145 -0.0789582433 -5.8877367234
H 2.2141977736 -1.1476584417 -2.5648885624
H 2.0443366504 -1.5644889698 -5.0138666670
C -0.6315311434 -2.1090931171 -5.9801018869
C -0.0257553764 -2.2740165647 -7.3870470623
O 1.3392635158 -2.4588278157 -7.2402363980
O -0.6486120515 -3.2861471709 -8.0886261217
Cl -0.3707830726 -0.7479153464 -8.3589425758
H -1.7058326736 -1.9517589190 -6.1019287497
H -0.4784581854 -3.0480402599 -5.4351811157
H 1.7428444580 -2.5286859599 -8.1263691850
H -0.2612416412 -4.1362983014 -7.8108831029
C -5.1953771257 -1.3042228614 -0.6055033097
C -6.0678043261 -0.0936614503 -0.2729140771
O -5.6849292470 0.3752289270 0.9817181827
O -5.9412066063 0.8597936337 -1.2796316076
Cl -7.8266934596 -0.6329761264 -0.1838221009
H -5.6360309376 -1.8211525772 -1.4615540409
H -5.2650259601 -1.9809181825 0.2497089380
H -6.3549612054 0.9998585860 1.3115708306
H -6.7097271014 1.4573321625 -1.2743811262
