112
# extracted from Terachem optimization
Co -0.0604265165 -0.2381960737 -0.2352068699
O -0.4151045387 1.9715569456 -0.2426873092
C 0.8088276864 2.7665534407 -0.3345069098
C 0.7302885454 3.7749216075 0.8354940488
C -0.7657852965 3.7857606989 1.1188691605
C -1.3244124164 2.7439493296 0.5043123831
H -2.3431636822 2.3928432081 0.4682167716
H 1.1219557217 4.7525559232 0.5426707717
H 1.2951097823 3.4537070829 1.7191389930
H 0.7551447397 3.3040661138 -1.2897515912
N 1.8769579759 0.5660286420 -0.3414175179
C 2.0022733758 1.8489800136 -0.3669026759
S 3.6163276986 2.5210375867 -0.5086188037
C 4.2605058078 0.8024215771 -0.8630674242
C 3.1726248632 -0.1392840617 -0.3141980572
H 3.3698090489 -0.4284425907 0.7250994666
H 3.1131815074 -1.0548707751 -0.9026787388
H 4.3106113238 0.7339483197 -1.9539024675
C 5.7092286347 0.6488810978 -0.3374282795
O 6.3880710088 1.7048565895 -0.9764931520
C 5.8689073089 0.7117945686 1.1918391556
C 6.2153602735 -0.7502783542 -0.7940088863
O 5.5276177738 -1.7221742976 -0.8838211452
Cl 7.9757685096 -0.8167903021 -1.0979232992
H 7.3195492268 1.7181657981 -0.6959863867
H 5.3663522828 -0.1186712717 1.6970563070
H 6.9313775170 0.6589280607 1.4497746745
H 5.4711478066 1.6595163071 1.5646801110
C -1.3739081275 4.8647176488 2.0082862304
O -0.5250139569 5.1093816392 3.1048399464
C -1.4871265833 6.2039500204 1.2488983615
C -2.8191280298 4.4762542449 2.4195457415
O -3.5761638354 3.8566011975 1.7315287655
Cl -3.3260650986 5.0997766939 4.0132376845
H -0.6061652444 4.3946786182 3.7625638199
H -2.1185171944 6.1019362120 0.3628174791
H -1.9060956461 6.9620898973 1.9155285829
H -0.4874595533 6.5331134368 0.9515746724
O 0.0690203675 -2.4304864261 -0.0279445193
C -0.1832644909 -2.9080120828 1.3316544692
C 0.9572066587 -3.9155936353 1.6495853564
C 1.6279053168 -4.0800532638 0.2970514421
C 1.0921103828 -3.2261999362 -0.5691301494
H 1.2931765204 -3.0374177861 -1.6107422219
H 0.5548618689 -4.8556944559 2.0386393608
H 1.6668091305 -3.5400659892 2.3941353696
H -1.1574582264 -3.4083289496 1.3087451861
N -0.1860417120 -0.5068066713 1.8344863500
C -0.2674355565 -1.7229574873 2.2621533357
S -0.5101134712 -1.9748357317 3.9799726581
C -0.7945835076 -0.1409249330 4.1773456496
C -0.1437407722 0.4773486325 2.9283564751
H 0.9088499905 0.7292078766 3.1072516781
H -0.6569938999 1.3882869078 2.6260657453
H -1.8812987282 -0.0111582239 4.1529853411
C -0.3244250457 0.3375410538 5.5738193230
O -1.0844388531 -0.4597600752 6.4501528106
C 1.1855054619 0.2139981578 5.8461289842
C -0.6837064181 1.8503839517 5.6874072892
O -0.6238711885 2.6199372436 4.7677616755
Cl -1.1149435326 2.3845127539 7.3175367767
H -0.7915000690 -0.3258263743 7.3678416484
H 1.7824336831 0.8378175500 5.1739656012
H 1.4028462516 0.5339584850 6.8706372202
H 1.4955032642 -0.8291085297 5.7399785232
C 2.7191033046 -5.1122417035 0.0916618727
O 3.4025793399 -5.1686353862 1.3281239351
C 2.1199809174 -6.4862009975 -0.2885170036
C 3.6678152884 -4.6883148685 -1.0680969551
O 3.3804409788 -3.9850397287 -1.9876378039
Cl 5.2854841302 -5.4566906886 -0.9636886213
H 4.0549390430 -5.8892961810 1.2945433743
H 1.5763659472 -6.4356579348 -1.2362955497
H 2.9143299741 -7.2338153323 -0.3831022418
H 1.4352759967 -6.8088847418 0.5013593411
O -2.2033387909 -0.8109116824 -0.4289664367
C -2.6078549231 -1.1934157368 -1.7804467682
C -3.9719588386 -0.4976526054 -2.0257987557
C -4.3743441127 -0.0899092884 -0.6177864841
C -3.3398035046 -0.2738939897 0.1989237775
H -3.2330793359 -0.1139630818 1.2594505257
H -4.6886022832 -1.1804300951 -2.4906699556
H -3.8887303761 0.3747718845 -2.6838031134
H -2.7256445589 -2.2838077541 -1.7726691346
N -0.3460010460 -0.4329005474 -2.3212642523
C -1.4977757117 -0.8403058694 -2.7367305081
S -1.7530134182 -1.0120037302 -4.4597655401
C 0.0608868081 -0.6846405947 -4.7388296943
C 0.5589392569 -0.0540082042 -3.4206313263
H 0.5716674766 1.0405345786 -3.4765725106
H 1.5745314232 -0.3818207637 -3.1986972126
H 0.5150654557 -1.6675509973 -4.8914585404
C 0.2604050525 0.1124225133 -6.0527395930
O -0.4189168175 -0.6739068624 -7.0048831411
C -0.2621768604 1.5588955619 -6.0319248193
C 1.7919989820 0.1659866903 -6.3185128886
O 2.6306900656 0.1658969214 -5.4673097745
Cl 2.2151621340 0.3061051346 -8.0492260437
H -0.3806802783 -0.2460549138 -7.8777676145
H 0.2852647247 2.1910146423 -5.3260050008
H -0.1479189585 2.0040263208 -7.0252784198
H -1.3245635643 1.5640445927 -5.7730197923
C -5.7921236927 0.3844052110 -0.3198353915
O -6.3115812454 1.0690408353 -1.4385827005
C -6.7300508773 -0.8219378161 -0.0881948267
C -5.8149874882 1.2103409765 0.9929312830
O -5.1687785735 0.9420915082 1.9618779576
Cl -6.9569370117 2.5820624683 0.9905996034
H -6.0419526290 2.0025172169 -1.4172445797
H -6.3895765247 -1.4242053641 0.7572845460
H -7.7453601164 -0.4617244779 0.0980536609
H -6.7498632623 -1.4375879594 -0.9921014729
