115
# extracted from Terachem optimization
Co 0.2348015668 0.1763467027 0.0713364464
O 0.5039514201 2.3759302361 -0.0075040488
C 1.8714546014 2.7270983991 -0.3241241162
O 2.1316486829 3.8939502670 0.3852605172
C 0.9304500289 4.6787344717 0.2336798970
C -0.1683402448 3.6097877260 0.3696036738
H -0.5306957047 3.4971851605 1.3960992689
H -1.0065606506 3.7930079633 -0.3050661410
H 0.9112288019 5.0976765852 -0.7790677580
H 1.9265609248 2.9033884749 -1.4119838768
N 2.3344322940 0.4302642077 0.2323036433
C 2.8262512676 1.6176647815 0.0741760077
C 4.2399210112 1.9439798830 0.1313754372
C 5.1551721222 0.9522036022 0.0172940664
C 4.6627024990 -0.4721389771 -0.0018745673
C 3.2904554053 -0.6080450598 0.6619088751
H 4.6514981886 -0.8085401240 -1.0505877052
H 5.3725959283 -1.1308561331 0.5122656789
H 4.5132466310 2.9941307445 0.1096721920
H 3.3985496636 -0.5199601380 1.7531800045
H 2.8494740206 -1.5875179509 0.4602731425
C 6.6484821044 1.2253038561 -0.1904376444
N 7.2806409167 2.0562913129 0.8265939334
C 6.9250602563 1.8923225515 -1.5486616751
Cl 6.1937943681 0.9652760352 -2.9283083261
H 7.1698217075 0.2625800571 -0.1857613276
H 6.7788467846 2.9248220844 0.9935859765
H 7.3845359890 1.5697164412 1.7128227156
H 6.5059101744 2.9001106894 -1.5903171234
H 7.9999917660 1.9397615904 -1.7190381966
C 0.9503886238 5.8246357935 1.2719012813
N 1.2150075311 5.4379792509 2.6452981506
C -0.3480000220 6.6454745880 1.2837301203
Cl -0.9284783839 7.1009527548 -0.3705944388
H 1.7673163289 6.4854678474 0.9608296090
H 0.5102212497 4.8145404087 3.0307159523
H 2.1303702665 5.0109276125 2.7501601951
H -1.1636717468 6.0934799646 1.7601798628
H -0.1865870999 7.5673300996 1.8410695888
O -0.3706804597 -1.9706132615 0.2981800928
C -1.0231702490 -2.1693413248 1.5753884280
O -0.6270755334 -3.4250228230 2.0210868201
C -0.5547833014 -4.2451299070 0.8337129242
C 0.0768400778 -3.2746686392 -0.1723314373
H 1.1708098529 -3.2917450920 -0.1440824379
H -0.2787654872 -3.4182630519 -1.1942329603
H -1.5738855348 -4.4943479681 0.5145904857
H -2.1091203752 -2.1232114122 1.3946591858
N -0.0509013713 -0.0268466548 2.1344153317
C -0.6128593244 -1.1068735213 2.5814621380
C -0.9608901997 -1.3410449336 3.9687407353
C -1.0126465687 -0.2939208016 4.8279989149
C -0.5522768076 1.0539959396 4.3360703754
C 0.4141154465 0.9273034347 3.1565998560
H -1.4524336671 1.6348939159 4.0752586929
H -0.0622446882 1.6111437145 5.1434644203
H -1.3173885011 -2.3304260104 4.2369211558
H 1.3882250000 0.5652873172 3.5172319473
H 0.5883416107 1.8897481992 2.6703153147
C -1.5813014599 -0.4052150065 6.2438589452
N -0.7907621813 -1.2421571149 7.1415688837
C -3.0220241453 -0.9342617304 6.2618123516
Cl -4.0991193596 0.0464337034 5.1809427220
H -1.5976908987 0.5995546729 6.6783530499
H -0.5835926995 -2.1558860932 6.7458684294
H 0.0842279320 -0.8034054726 7.4148934938
H -3.0807115894 -1.9694728791 5.9185149491
H -3.4217074958 -0.8697244275 7.2732993709
C 0.2108213090 -5.5414080971 1.1767331240
N 1.5188056268 -5.3713907117 1.7862449506
C 0.3927327176 -6.4623414736 -0.0378956585
Cl -1.1462060647 -6.7725506506 -0.9365615027
H -0.4175405132 -6.0653067703 1.9062704374
H 2.1883590015 -4.9154635000 1.1711923362
H 1.4599614777 -4.8460329343 2.6536082830
H 1.0985225299 -6.0393292582 -0.7592941020
H 0.7776578237 -7.4246391539 0.2979409975
O -1.9662999299 0.1954853474 -0.2523388994
C -2.2578818351 -0.4927784996 -1.4937776063
O -3.3348862246 0.1712338589 -2.0744078683
C -4.1397926394 0.6452186825 -0.9736655595
C -3.0590589326 1.1238882136 -0.0032089513
H -2.7159650475 2.1364993245 -0.2358759946
H -3.3515923278 1.0464876568 1.0448175669
H -4.6785972827 -0.2028717753 -0.5338624478
H -2.5122877166 -1.5305648795 -1.2289298332
N 0.0847079943 -0.1092978292 -2.0134739349
C -1.0779860183 -0.4770981337 -2.4553084784
C -1.3300494092 -0.9920083594 -3.7871866786
C -0.2896595480 -1.4288965529 -4.5383712407
C 1.1077678682 -1.1889745589 -4.0303242327
C 1.1569440510 -0.0368229695 -3.0244463895
H 1.4745037136 -2.1327403954 -3.5932271959
H 1.7882643382 -0.9658698539 -4.8608114567
H -2.3620673084 -1.1733386611 -4.0672169818
H 1.0370768085 0.9175624076 -3.5574351541
H 2.1141462724 -0.0064151100 -2.5012408205
C -0.4586741199 -2.1950598786 -5.8450250112
N -0.7023326661 -1.3126564675 -6.9860229791
C -1.5742604015 -3.2459033028 -5.8142588616
Cl -1.3358511457 -4.4254166477 -4.4546442931
H 0.4788226795 -2.7247787703 -6.0456873727
H -1.4046096542 -0.6039493307 -6.7907114681
H 0.1400669582 -0.8556229544 -7.3227939196
H -2.5638277529 -2.8018555873 -5.6866501849
H -1.5614459490 -3.8120301571 -6.7449040433
C -5.1497121451 1.6870198894 -1.5081778369
N -4.6013822587 2.7474453043 -2.3348411043
C -5.9492553128 2.3664770618 -0.3867598083
Cl -6.6324170678 1.2012756244 0.8199171509
H -5.8516091364 1.1226545499 -2.1324571229
H -3.9178686626 3.3223032356 -1.8485820798
H -4.1789967771 2.3848039454 -3.1841895511
H -5.3258490411 3.0685498114 0.1748392096
H -6.7824722809 2.9169134019 -0.8216568146
