112
# extracted from Terachem optimization
Co -0.2547284678 -0.3184517119 -0.1326205747
O -0.0066395595 2.1062011429 -0.1709682785
C 1.3719961928 2.5094495564 -0.4854987963
C 1.7250465821 3.5822020297 0.5727493782
C 0.3505469949 4.0179755195 1.0418777013
C -0.5508820777 3.1143915990 0.5953415518
H -1.6204583195 3.0641429679 0.7379825944
H 2.3076411050 4.4004209998 0.1394194353
H 2.3136442507 3.1747725202 1.4038568373
H 1.3359540513 2.9615264225 -1.4841966373
N 1.7617953847 0.0909540303 -0.4061330198
C 2.2475873957 1.2833236119 -0.5306660824
S 3.9616100009 1.4593967981 -0.8012840742
C 4.1083392954 -0.3965840909 -0.9783301928
C 2.8121063234 -0.9478729152 -0.3558886470
H 2.9577709178 -1.2208289752 0.6947579314
H 2.4754245345 -1.8420137236 -0.8806128723
H 4.1340714110 -0.5767911428 -2.0573134508
C 5.4645192435 -0.8993274587 -0.4154603397
O 6.3933228260 -0.2434504422 -1.2361364265
C 5.7176901169 -0.6183114752 1.0777078831
C 5.4698701156 -2.4553579916 -0.5697531159
O 4.5698315693 -3.1376853662 -0.1520344887
Cl 6.9049913643 -3.1444809758 -1.3036944941
H 7.3025533090 -0.4095847284 -0.9325602264
H 4.9843796691 -1.1085347374 1.7242813967
H 6.7057487318 -0.9986187908 1.3593496912
H 5.7063977600 0.4595313333 1.2604954865
C 0.1718365546 5.2464987365 1.9161559665
O 1.1150008926 5.2109259128 2.9496001024
C 0.4256235213 6.5498759973 1.1223210796
C -1.3088245452 5.3462838678 2.4062224639
O -2.2371370168 5.0306104436 1.7184722082
Cl -1.5218169597 6.0335815695 4.0111713215
H 0.8951095515 4.5067941235 3.5922925715
H -0.2581554368 6.6405487053 0.2751238290
H 0.2938433317 7.4024190499 1.7939804416
H 1.4603581100 6.5595103850 0.7687137185
O -0.5926029312 -2.4066776532 0.1223742019
C -0.5773559835 -2.8398121446 1.5254151047
C 0.5666244704 -3.8842032426 1.6287892399
C 0.8417910090 -4.2098326686 0.1695356651
C 0.1735606008 -3.3602486935 -0.6044198973
H 0.1073472496 -3.2518544035 -1.6738284517
H 0.2507768762 -4.7593003623 2.2035864140
H 1.4669911370 -3.4933173949 2.1147505665
H -1.5485728719 -3.3093434050 1.7171033394
N -0.3254657636 -0.4348859534 1.8966022369
C -0.4238023732 -1.6248402152 2.4055576008
S -0.3594941757 -1.7797760977 4.1414609302
C -0.3984454512 0.0849188343 4.2957747327
C -0.0063977730 0.5938895653 2.8968384791
H 1.0669163346 0.8042691308 2.8305159955
H -0.5321096736 1.5164150477 2.6583181999
H -1.4408727628 0.3283604700 4.5222968218
C 0.4351250260 0.5709613210 5.5121585007
O -0.2359903318 -0.0115726013 6.5984277607
C 1.9283284712 0.1963704885 5.4886541576
C 0.3768570033 2.1325214900 5.5216177071
O 0.4701622715 2.7935308899 4.5166334865
Cl 0.2607060141 2.8703372935 7.1072870412
H 0.2738128321 0.0941600773 7.4205528703
H 2.4486272305 0.6096192781 4.6193840349
H 2.4223487160 0.5891555127 6.3838415042
H 2.0349695085 -0.8919116993 5.4939269070
C 1.7813095000 -5.3637477363 -0.1823984714
O 2.8258276251 -5.4023208582 0.7689841573
C 1.0329743661 -6.7073600000 -0.0804608577
C 2.3307726293 -5.2059747792 -1.6265125295
O 1.9186449768 -4.4254041858 -2.4392277156
Cl 3.6655152266 -6.3034006498 -2.0067363906
H 3.5391746006 -4.7902291822 0.5095447208
H 0.1980243946 -6.7552569559 -0.7853453025
H 1.7284019729 -7.5254218510 -0.2790569971
H 0.6512531358 -6.8299119600 0.9372011412
O -2.7836637767 -0.3064886254 -0.2371548193
C -3.2608551207 -0.6959195742 -1.5751657027
C -4.5290244821 0.1589662488 -1.8252465517
C -4.7481097876 0.8231218187 -0.4934907949
C -3.7050593887 0.5093218392 0.3255320735
H -3.4984814609 0.8225831935 1.3385299295
H -5.3893697077 -0.4489812686 -2.1279944310
H -4.3979216799 0.9118089581 -2.6141561292
H -3.5031840195 -1.7617714237 -1.5044073818
N -0.9152617232 -0.2561284313 -2.1343036343
C -2.1160298941 -0.5157929861 -2.5417269153
S -2.3991528099 -0.7278615927 -4.2502148731
C -0.5478992165 -0.7729642020 -4.5027592472
C 0.0088903627 -0.0400292399 -3.2745435593
H 0.0749352093 1.0415079764 -3.4456551091
H 1.0034451127 -0.4043581703 -3.0272968917
H -0.2838738142 -1.8346871443 -4.4725212033
C -0.1798999831 -0.2608311835 -5.9170743250
O -0.9483515342 -1.0985591472 -6.7497297590
C -0.4664982252 1.2273176386 -6.1774273979
C 1.3513672386 -0.4889917976 -6.0891865402
O 2.1389494842 -0.4526156429 -5.1873561482
Cl 1.8563667921 -0.7396957863 -7.7691597351
H -0.8281115181 -0.8496470045 -7.6831298566
H 0.1380353718 1.8867994252 -5.5466442760
H -0.2322394594 1.4676124089 -7.2190283698
H -1.5267703621 1.4360330845 -6.0097216160
C -5.9383194270 1.6855588242 -0.1970293760
O -6.5169709108 1.9688338528 -1.4342656128
C -6.9405459880 0.9813887115 0.7701408607
C -5.4553257692 2.9787457209 0.5884444202
O -4.6258282902 2.9422197428 1.4484954878
Cl -6.3256916385 4.4431817605 0.1570764311
H -7.3836572555 2.3951911447 -1.3150781768
H -6.4769939367 0.7523522819 1.7323137281
H -7.7956055662 1.6436499619 0.9432853047
H -7.2973621142 0.0600714290 0.3020026645
