136
# extracted from Terachem optimization
Co -0.0003625188 -0.2845141733 -0.0177241563
O 0.1046420423 1.8668062291 0.0538728352
C 1.0762835152 2.4851694697 -0.9495862356
N 1.4177966778 3.8138711593 -0.6674645443
C 1.7583254882 4.0503331238 0.7604380748
C 0.5692547682 3.6591342236 1.5974148890
C -0.1753111661 2.6288761847 1.1972354643
H 2.6111791211 3.4078253841 0.9983416779
H 0.6898574993 4.4793541502 -0.9290119912
H -1.0961789464 2.3035240979 1.6599216590
H 0.2733912765 4.2424947292 2.4608154150
H 0.5031264964 2.4548559526 -1.8763215031
O 2.0859089361 0.3579660586 -0.2474189491
C 2.3162872339 1.5204641552 -1.0693403226
C 3.6471226071 2.1707940679 -0.8145981103
C 4.5851096582 1.6743965330 0.0059971006
C 4.3409780993 0.3652784506 0.7260661549
C 3.2910279333 -0.4392889977 -0.0309965753
H 3.8338818618 3.0728136667 -1.3884167663
H 2.3436704386 1.1964559570 -2.1210692034
H 2.9548704343 -1.3108154909 0.5294682891
H 3.6690795202 -0.7660403688 -1.0071448961
H 5.2608924128 -0.2259652552 0.7814651824
H 4.0360270438 0.5306299282 1.7650186709
C 5.8733876337 2.4616300171 0.0707282271
O 6.3246614055 3.0005262006 -0.9126971712
C 6.6069638769 2.7133513080 1.4758683881
N 6.0611881867 3.9176909567 2.0508015621
O 6.3496855883 1.6040960266 2.2993175093
N 8.0092846809 2.8637973606 1.2538999838
H 6.7305676563 4.6826000657 2.0512328764
H 5.1422797479 4.2301823528 1.7365647882
H 6.3164258189 1.9539470418 3.2086001978
H 8.2538296275 3.2054430182 0.3275430723
H 8.5658323931 2.0683668328 1.5494667156
C 2.3233266465 5.4739063573 0.9379450548
O 3.4904762807 5.6085364619 1.2550302411
C 1.3893235345 6.7013859068 0.7523885078
N 2.1712234302 7.8212354502 0.3222213885
O 0.4059082151 6.3998794354 -0.2403259067
N 0.6567459383 6.7782843890 2.0133147277
H 1.7657677501 8.7101808527 0.6044959063
H 3.1348659458 7.7612438556 0.6415924534
H 0.6858825661 6.9251730147 -1.0121495153
H 1.1672010215 7.3314274044 2.6980665005
H -0.2598462401 7.1933701886 1.8538757767
O 0.0403811762 -2.4358513123 0.0931789280
C -0.5787994443 -2.9770091050 1.3897493338
N -0.0350494985 -4.1990984097 1.8019297004
C 1.4475378138 -4.2712885979 1.7511999705
C 1.8752891015 -3.9840723024 0.3325242797
C 1.1507663367 -3.1334738675 -0.3955573838
H 1.8438905612 -3.5187814842 2.4402538384
H -0.3962777975 -4.9904736137 1.2681972314
H 1.3147915755 -2.9189982859 -1.4453207964
H 2.6961024697 -4.5244076687 -0.1237178580
H -1.6224098490 -3.1283290337 1.1150419918
O 0.4531835247 -0.8299574783 1.9821193542
C -0.5017175807 -1.8140883945 2.4504918115
C -0.1830248331 -2.3357031530 3.8182769302
C 0.8861943258 -1.9553448683 4.5296961094
C 1.7912107516 -0.8522763778 4.0275675396
C 1.0245192309 0.0084549060 3.0348500387
H -0.8554885566 -3.0956725666 4.2034670925
H -1.4877694549 -1.3303914710 2.4724928893
H 1.6589471623 0.7166004914 2.5026628018
H 0.2101282670 0.5543594363 3.5233070214
H 2.1248096522 -0.2256892345 4.8620759261
H 2.7010401080 -1.2700323244 3.5819153353
C 1.1304283436 -2.7127757806 5.8066316796
O 0.2174793623 -3.1038897529 6.5051501810
C 2.6100432551 -3.0711281194 6.1520561920
N 2.5806365352 -4.2348101945 6.9917866530
O 3.3565243753 -3.3118501877 4.9846454338
N 3.2177435656 -1.8854939815 6.7392332150
H 3.4519793925 -4.4541566497 7.4650846352
H 1.7558861785 -4.3115898625 7.5816745658
H 3.1106280615 -4.1963086726 4.6385143463
H 2.8848468897 -1.7019042371 7.6834004790
H 4.2353499419 -1.9458656327 6.7225892867
C 1.9037156051 -5.6157316124 2.3637257998
O 2.5008821114 -5.6205298825 3.4241790494
C 1.6316276021 -6.9411336182 1.5992503872
N 1.5242383691 -8.0119411879 2.5424843115
O 0.4034430840 -6.8241043537 0.8740223779
N 2.6819959089 -6.9813373099 0.5851776688
H 1.7982107185 -8.9081025904 2.1474253350
H 2.0485695737 -7.8302921822 3.3945331049
H -0.2064435681 -7.4146438856 1.3535119581
H 3.5203357979 -7.4303909480 0.9472464290
H 2.3500278183 -7.4874809444 -0.2344869229
O -2.1845953245 -0.3355187319 0.0020524018
C -2.8755972236 -0.6576026009 -1.3169309595
N -3.5196082428 0.4803795794 -1.8754087526
C -3.0733037590 1.7742913086 -1.2905268521
C -3.3417861298 1.7002541274 0.1979088560
C -2.8987963928 0.5906648826 0.7881735125
H -2.0000907451 1.8720178248 -1.4713803153
H -4.5294427566 0.4471975038 -1.7364107064
H -3.0700849411 0.2658727324 1.8091048904
H -3.9462437051 2.4430733138 0.7070995351
H -3.6147082326 -1.4339957964 -1.0951452549
O -0.5902379263 -0.4555625358 -2.1085725035
C -1.7710579975 -1.3056686246 -2.1692507476
C -2.2711074138 -1.5538764907 -3.5591699514
C -1.7012397081 -1.0667044521 -4.6697295247
C -0.4358163186 -0.2522499041 -4.5572268662
C 0.2821052908 -0.6268595802 -3.2726436892
H -3.1611872081 -2.1735857901 -3.6427232984
H -1.5104476994 -2.2603766247 -1.6913564418
H 1.1431687363 0.0130565241 -3.0867997694
H 0.6142551639 -1.6718028889 -3.3002876187
H 0.2271142812 -0.4586290660 -5.4035071810
H -0.6563014261 0.8205723547 -4.5858276208
C -2.3728274805 -1.4108211084 -5.9746613920
O -3.3023188691 -2.1948501692 -6.0131984776
C -1.8576609116 -0.7381506659 -7.2905730850
N -2.8794504232 -0.8926769377 -8.2860236103
O -1.6015369246 0.6332168388 -7.0547135156
N -0.5588278984 -1.3160996112 -7.5924780658
H -2.5514477343 -0.8398744123 -9.2459026596
H -3.4911583506 -1.6878897422 -8.1189554722
H -2.4106837102 1.1020856037 -7.3238476870
H -0.6272236240 -2.2612231460 -7.9633242401
H -0.0302582751 -0.7177661429 -8.2260921230
C -3.7011671984 2.9509043918 -2.0591343079
O -2.9815748278 3.6867815476 -2.7029164034
C -5.2292093731 3.2103538458 -1.9452262392
N -5.6795027372 3.8300502138 -3.1571262127
O -5.9249132122 1.9762610836 -1.7614295039
N -5.3768440681 3.9173443640 -0.6724490200
H -6.5134500175 4.3952048931 -3.0146394945
H -4.9468996893 4.3948125654 -3.5806392311
H -6.3503295950 1.8113012817 -2.6224529903
H -5.1887888067 4.9107830326 -0.7917395166
H -6.3285228358 3.7970162216 -0.3263441818
