127
# extracted from Terachem optimization
Co -0.0317702474 -0.2734615639 0.1822263071
N 0.5258474630 1.7233625202 -0.0491985205
C 1.7416807026 2.0609407558 -0.3738619338
C 1.8478068599 3.4563583470 -0.7686198491
C 0.6051535570 3.9897505516 -0.6660625922
C -0.3184817571 2.9115535069 -0.1904390265
H -0.7814139837 3.1765062616 0.7680796307
H -1.1396402106 2.7207422970 -0.8882080674
H 2.7441728942 3.9755972995 -1.0820538189
O 2.3218034175 -0.1662071443 0.1720486245
C 2.8612835072 1.0482273384 -0.3645919000
C 4.0786443874 1.5559674361 0.3660657014
C 4.7127220768 0.8649108782 1.3239519047
C 4.1872704862 -0.4855564140 1.7514178754
C 3.3426091049 -1.0935449342 0.6409408829
H 4.4658701676 2.5201724594 0.0486450725
H 3.1443531949 0.8742167557 -1.4198293744
H 2.7936655839 -1.9712996045 0.9820254893
H 3.9678358732 -1.3739902379 -0.2164752590
H 5.0090798990 -1.1671343782 1.9789955154
H 3.5964053774 -0.3669244267 2.6664954212
C 5.9493794633 1.5194977920 1.8895543631
O 6.0741673705 2.7312415664 1.8573823860
C 7.0909222079 0.6457484783 2.4948773661
N 6.6791194487 0.3459419722 3.8791910915
O 7.1702213669 -0.6171508074 1.8549018753
N 8.3224367101 1.3529447190 2.2924028957
H 7.1015829101 -0.5427559690 4.1504126893
H 7.0425365532 1.0713844350 4.4952426348
H 7.8551440885 -0.5049750052 1.1730244108
H 8.1834665101 2.3601078861 2.3177562791
H 9.0450763894 1.0704093576 2.9491367339
C 0.2972586600 5.4219767316 -0.9740621120
O 1.1782730995 6.1562177859 -1.3809916546
C -1.1503557030 5.9257831555 -0.7241149201
N -1.3115395845 7.1859351452 -1.3890741657
O -2.0662178601 4.9794452510 -1.2732055437
N -1.3597871710 5.8371857340 0.7186576941
H -1.9850836510 7.7902419438 -0.9282342978
H -0.4235915387 7.6658104528 -1.5148201486
H -2.2897270610 5.3445832583 -2.1473183502
H -0.9237992253 6.6264756979 1.1919710088
H -2.3614414153 5.8555759611 0.9078277031
N 0.0690288337 -2.2394001236 0.7825477998
C -0.2273801007 -2.5928415754 1.9989914020
C -0.2778078781 -4.0365144252 2.1636446752
C -0.0126413321 -4.5791995679 0.9488164314
C 0.2310816960 -3.4565856555 -0.0134307406
H 1.2313886246 -3.5068448061 -0.4587552372
H -0.4759452886 -3.4586538632 -0.8487034804
H -0.4992554322 -4.5764041967 3.0758691753
O -0.6002470295 -0.2931642466 2.3831692328
C -0.4894209505 -1.5545091940 3.0582195041
C 0.5954020985 -1.5747672471 4.1052376324
C 1.2598305295 -0.4778545084 4.4991034493
C 0.9006685539 0.8776715190 3.9316713878
C -0.4784937383 0.8327727963 3.2962488001
H 0.8365478290 -2.5371748653 4.5496492307
H -1.4606474951 -1.7864910308 3.5302709397
H -0.6792437791 1.7121990309 2.6835304917
H -1.2695693333 0.7412214679 4.0511037637
H 0.9129369682 1.6291739212 4.7249036360
H 1.6559259735 1.1916013735 3.2029589896
C 2.3525223823 -0.7049450487 5.5230531749
O 2.6821920195 -1.8386637804 5.8264090265
C 3.0827691342 0.5262202667 6.1316419707
N 3.7697399620 1.1663337215 5.0190157962
O 2.1171329411 1.4774794279 6.5734254414
N 3.8480701394 0.0796271482 7.2643599561
H 3.9062397641 2.1536959578 5.2292720415
H 4.6670627222 0.7255975945 4.8056621709
H 2.0251825398 1.2992053176 7.5256531879
H 4.0698514414 -0.9104329100 7.2007057119
H 4.6869518707 0.6327895405 7.4078316922
C 0.0087471662 -6.0546864288 0.6954600305
O -0.0607317990 -6.8300205937 1.6297731769
C 0.1307569843 -6.5396958321 -0.7752237140
N -0.2445231021 -7.9213098512 -0.8261170957
O -0.7664287225 -5.7744264756 -1.5816777045
N 1.4609417675 -6.1363982314 -1.2271164972
H 0.2265580162 -8.4345740751 -1.5646628396
H -0.1254453106 -8.3844837376 0.0715037357
H -1.5491606555 -6.3468228414 -1.6671995735
H 2.1634984681 -6.7892627892 -0.8840703312
H 1.4773584426 -6.1494780144 -2.2465748941
N -2.0342770784 -0.0834276863 -0.3403266091
C -2.4044978758 -0.3581260588 -1.5578494991
C -3.8470853679 -0.3026036539 -1.7287535353
C -4.3727229604 0.0224879630 -0.5213547317
C -3.2395586651 0.1816915435 0.4458570651
H -3.2142476033 1.1913787452 0.8724473390
H -3.3019635621 -0.5075966828 1.2936979928
H -4.3993882774 -0.4837704034 -2.6424326979
O -0.1169323222 -0.8369168644 -2.0050325992
C -1.4029078674 -0.7055934308 -2.6302175256
C -1.4075229326 0.3237008136 -3.7351457238
C -0.2864853100 0.8419428308 -4.2588447249
C 1.0718947534 0.3791935701 -3.7818083642
C 0.9559898205 -0.9112655958 -2.9848784579
H -2.3753793695 0.6443487458 -4.1115263315
H -1.6880424151 -1.6898275657 -3.0436643953
H 1.8533615836 -1.1210136470 -2.4007683889
H 0.7508523743 -1.7691594550 -3.6367760042
H 1.7281135965 0.2157935946 -4.6404172849
H 1.5386692956 1.1749217140 -3.1905058711
C -0.4768432452 1.8988139018 -5.3239335212
O -1.5579797432 2.4447321281 -5.4603108121
C 0.7348461072 2.3186804014 -6.2088382420
N 1.6127307929 3.0720388405 -5.3083630877
O 1.4936378090 1.1782398707 -6.5877829979
N 0.2268846901 2.9578873881 -7.3880701499
H 2.5616963914 3.0456922307 -5.6808928360
H 1.3094832274 4.0426933037 -5.2604512062
H 1.1684338463 0.9550226013 -7.4773161169
H -0.6775665095 3.3921620597 -7.2237578114
H 0.8841304060 3.6238662284 -7.7836197990
C -5.8415434944 0.2077693064 -0.2972285464
O -6.6182309689 0.0248829768 -1.2151672463
C -6.3127947097 0.6679306055 1.1102563971
N -7.7294613559 0.4736510616 1.1990843186
O -5.6573360412 -0.1392622141 2.0888293536
N -5.7549579135 2.0037890485 1.3064861258
H -8.1868890097 1.1485273222 1.8039470884
H -8.1705525261 0.4482468562 0.2830274756
H -6.3206668582 -0.8144839140 2.3162383675
H -6.3169962700 2.6965201711 0.8150230543
H -5.7700716648 2.2206433016 2.3028085136
