130
# extracted from Terachem optimization
Co -0.2365931090 -0.1345136334 -0.2150593030
O -0.1901726669 2.1709913668 -0.1842586192
C 1.1202700779 2.7119028419 -0.2355413519
S 1.4202301733 3.9413988102 1.1208226222
C -0.0303144445 5.0607852978 0.7959113419
C -1.3056697191 4.2455161366 0.5061196988
C -1.1880092945 3.1606599576 -0.5577084578
H -0.1591253997 5.5415558060 1.7692674772
H 1.2336771725 3.2522763483 -1.1827519413
H -2.1220812115 2.6042755076 -0.6523396458
H -0.9154157510 3.5783446630 -1.5325197328
H -2.0984566453 4.9301828531 0.1886319656
H -1.6337588027 3.7826813315 1.4442630402
N 1.6887918991 0.3210448276 -0.1364996000
C 2.1361084448 1.5932723781 -0.1433975681
C 3.5038909615 1.8786879668 -0.1023562391
C 4.4335636916 0.8431013247 -0.0473285918
C 3.9487738294 -0.4700790003 -0.0005660472
C 2.5840507416 -0.6891398613 -0.0498695952
H 3.8440586228 2.9083142996 -0.1064606233
H 2.1653358701 -1.6894850012 -0.0202435177
H 4.6230795273 -1.3168829432 0.0671393593
C 5.9413577695 1.1173811675 0.0631273762
N 6.2268220581 2.4962384854 -0.3100662001
O 6.3544943503 0.9049590951 1.4001921609
C 6.6995560818 0.1309623562 -0.8640174474
O 6.3571745845 0.0541097755 -2.0379696018
N 7.7253183510 -0.5371705345 -0.2972386785
H 7.2209943078 2.6724598483 -0.1607817247
H 6.0595123195 2.6156904011 -1.3101389392
H 6.1024163656 1.6966556860 1.9083614599
H 7.9495372775 -0.4043666993 0.6789751411
H 8.3124910009 -1.1229880653 -0.8763314064
C 0.2862588494 6.1961835874 -0.2306690043
N 1.0392033813 5.6820956148 -1.3768366260
O -0.9000992344 6.7270430884 -0.8119037407
C 1.0765136176 7.3216793771 0.5075779033
O 1.7876717948 7.0678951092 1.4703395803
N 0.9381843685 8.5583732852 -0.0346495086
H 1.0174098382 6.3849583112 -2.1153567361
H 2.0137544459 5.5673836961 -1.1017261468
H -1.3969036934 7.2030842032 -0.1253803208
H 0.3314400836 8.7263019159 -0.8238716390
H 1.4690714884 9.3258111309 0.3557615270
O -0.1697277654 -2.4150069049 -0.0063640119
C -0.1624681293 -2.8607380887 1.3435223661
S 1.2606658064 -3.9938384108 1.7033549588
C 0.9844852313 -5.2321136757 0.3445383460
C 0.6515536699 -4.5211379226 -0.9808259375
C -0.4771971148 -3.4980739018 -0.9240059417
H 1.9787037833 -5.6759255087 0.2457648397
H -1.0765342281 -3.4399719271 1.5170857600
H -0.6093867341 -3.0271779221 -1.9005531746
H -1.4207821079 -3.9578403932 -0.6111816512
H 0.3741190091 -5.2720289504 -1.7270822964
H 1.5598092940 -4.0254421235 -1.3422625717
N -0.1532463487 -0.4273054515 1.7495338047
C -0.1141288717 -1.6696434261 2.2774941850
C -0.0745438665 -1.8689500970 3.6602980423
C -0.0713483055 -0.7774984335 4.5262904297
C -0.0765355099 0.5030853611 3.9611767076
C -0.1207861497 0.6345426130 2.5853361510
H -0.0434265242 -2.8748982331 4.0641986638
H -0.1308491711 1.6040955063 2.1020690620
H -0.0569586401 1.3933343168 4.5798561227
C 0.0380906645 -0.9608334799 6.0478021740
N -0.3304794652 -2.3229002995 6.4122656805
O 1.3745914575 -0.7230880857 6.4501962446
C -0.8905152772 0.0632820241 6.7519708649
O -2.0590372948 0.1389217162 6.3905089623
N -0.3326112720 0.7580888018 7.7644817214
H -0.1928336190 -2.4372480760 7.4171272642
H -1.3270418233 -2.4610833795 6.2390811306
H 1.8820363773 -1.5305995718 6.2524071684
H 0.6441990350 0.6385523188 7.9935285298
H -0.9111053643 1.3762136173 8.3180081452
C 0.0069569531 -6.3877372584 0.7416647018
N -1.1437138251 -5.8761329591 1.4899129812
O -0.5786890852 -6.9978824596 -0.4047599982
C 0.7970321987 -7.4442381546 1.5745141290
O 1.7517095287 -7.1204914235 2.2672364301
N 0.3069688888 -8.7079970940 1.4943732422
H -1.8568710045 -6.6046815377 1.5151659065
H -0.8572245772 -5.7042032111 2.4527268636
H 0.1128070369 -7.4816070898 -0.8872731352
H -0.4898410753 -8.9332914579 0.9168950023
H 0.7282352207 -9.4314254788 2.0622710399
O -2.2355822906 -0.3886804918 -0.3658165115
C -2.7547011593 -0.4610885322 -1.7030452906
S -4.1283469976 0.7386702210 -1.9903771775
C -5.2253098577 0.2804696408 -0.5656882116
C -4.3945516545 0.0845314561 0.7163124655
C -3.2055412631 -0.8609944938 0.6183639228
H -5.8158266343 1.1927625873 -0.4416190015
H -3.1631833766 -1.4685920303 -1.8377174084
H -2.6619396883 -0.8880215984 1.5612677266
H -3.5097560060 -1.8734185096 0.3364443889
H -5.0456531235 -0.3028141685 1.5067902759
H -4.0345992942 1.0663180953 1.0434950045
N -0.3958719998 -0.0365859262 -2.1836892810
C -1.6381608246 -0.2063968006 -2.6845585511
C -1.8875610282 -0.1914578108 -4.0586775898
C -0.8354641795 -0.0042380903 -4.9518674026
C 0.4456627872 0.1888999443 -4.4204605968
C 0.6228059085 0.1618886765 -3.0493466136
H -2.8971738537 -0.3191229864 -4.4327646229
H 1.6013349562 0.2870602198 -2.6054022964
H 1.3019192827 0.3483495255 -5.0671664001
C -1.0576631580 0.0779793554 -6.4700347347
N -2.4013831701 -0.3715389117 -6.8057175526
O -0.8966658141 1.4198922509 -6.8888789765
C 0.0092773421 -0.8054337325 -7.1712264759
O 0.1021468703 -1.9792852548 -6.8340141884
N 0.7330416756 -0.2014763190 -8.1363033128
H -2.5516492370 -0.2180862642 -7.8035620859
H -2.4601112348 -1.3804382825 -6.6591314354
H -1.7182387516 1.8936534419 -6.6675186074
H 0.5629612738 0.7648182575 -8.3777046345
H 1.3745641045 -0.7545930052 -8.6896307111
C -6.2267369908 -0.8659945207 -0.9002236298
N -5.5476632186 -1.9810446626 -1.5656170549
O -6.7607376191 -1.4478223026 0.2846321266
C -7.3770607441 -0.2809875809 -1.7803684336
O -7.1935732269 0.6989999140 -2.4898789414
N -8.5429504732 -0.9713050151 -1.7148554364
H -6.1443090017 -2.8049749136 -1.4923755633
H -5.4585856901 -1.7691894738 -2.5585858202
H -7.3209257509 -0.7904499676 0.7306036719
H -8.6652609217 -1.7469880543 -1.0801867622
H -9.3206788505 -0.6737223946 -2.2893375720
