136
# extracted from Terachem optimization
Co 0.0412474037 -0.2816185755 0.0381964899
O -0.0221361383 1.9449972660 0.0757199511
C 0.9847175054 2.4929735536 -0.8512512500
C 1.1071144047 3.9846641969 -0.7591977712
C 0.1331950308 4.7601139236 -0.2275619421
C -1.0103507716 4.1050575840 0.3929331178
C -1.0360808565 2.7701069359 0.5202912988
H 1.9620295348 4.4494883409 -1.2331871041
H -1.8217189324 2.2006264124 1.0014808146
H -1.8403301082 4.6870970562 0.7710660930
H 0.6176694704 2.2210351040 -1.8564726133
N 2.0549501477 0.3988708124 -0.2496640215
C 2.2572897631 1.6922236162 -0.5829534708
C 3.5359884733 2.2227118807 -0.7178035604
C 4.6627838628 1.4149171835 -0.5043206206
C 4.4384016749 0.0837721470 -0.1327347076
C 3.1338875765 -0.3737582239 -0.0164585002
H 3.6900283903 3.2613232735 -0.9805502650
H 2.9303911860 -1.3997163381 0.2753127491
H 5.2785238328 -0.5747907517 0.0568174473
C 6.0794821348 2.0566347104 -0.5629681639
N 5.9913142581 3.2738998062 -1.3371430860
O 6.4655334232 2.3673876994 0.7595398352
C 7.1458512757 1.0258525164 -1.0877603275
N 7.4395549715 0.0340403629 -0.1210042974
O 6.6393466308 0.5140370763 -2.2718456359
Cl 8.7283639475 1.9948587996 -1.5284892357
H 6.9072915602 3.7231673097 -1.3377447568
H 5.7850299133 3.0556141896 -2.3124152534
H 6.1504153971 3.2679540689 0.9496147151
H 8.1678743484 -0.6022612443 -0.4409811974
H 7.7444100347 0.4710933742 0.7470820520
H 7.3648412948 0.1370582381 -2.7988487839
C 0.2808559884 6.2914181538 -0.1974945233
N 0.4691029621 6.7881200061 1.1376498966
O 1.4102210931 6.5774280745 -0.9854363612
C -0.9866639612 6.9784274009 -0.8199669715
N -1.2406443296 6.4398083346 -2.0978298301
O -2.0552666152 6.8332328244 0.0563195286
Cl -0.6045555947 8.8412657202 -0.8982801888
H -0.3798010928 6.9911790711 1.6538154049
H 1.1750702789 6.3048167669 1.6811363285
H 1.6087947348 7.5232674228 -0.8486015534
H -2.0331744976 6.8862381501 -2.5549669369
H -0.4217959404 6.5289551074 -2.6962600170
H -2.7203509318 7.5221631624 -0.1175328758
O 0.1118601096 -2.6137129306 0.2720791362
C -0.3983325253 -2.9868741264 1.5943420013
C -0.1101581894 -4.4076884469 1.9712969527
C 0.3803825516 -5.3258057202 1.0940213424
C 0.7174641152 -4.8788174309 -0.2414802624
C 0.5741981490 -3.5809193936 -0.5757660399
H -0.3987955578 -4.7214561760 2.9666876740
H 0.8096218615 -3.1721701032 -1.5507651127
H 1.0646640676 -5.5797934308 -0.9890380658
H -1.4927104889 -2.8622318669 1.5116929343
N 0.2862160945 -0.6830778603 2.0887764309
C 0.1045750832 -1.9270073016 2.5864601361
C 0.2944340278 -2.2078026908 3.9356215322
C 0.6708515025 -1.1922757144 4.8252214799
C 0.8862091680 0.0842543104 4.2910705421
C 0.6877154143 0.2902430793 2.9351441665
H 0.1721675810 -3.2097550929 4.3254024574
H 0.8462745939 1.2676018964 2.4909950021
H 1.1811296336 0.9003077238 4.9405959689
C 0.9509366304 -1.5273479593 6.3176231041
N 0.5093672414 -2.8794620828 6.5764056587
O 2.3413081331 -1.4312012658 6.5357699964
C 0.2979727288 -0.4405456653 7.2511364263
N 1.0057369640 0.7845946424 7.2088798363
O -1.0237950495 -0.3294245348 6.8447426093
Cl 0.2836331796 -1.1263539716 9.0267792324
H 0.7924886744 -3.1292943071 7.5243444499
H -0.5110739298 -2.9151985604 6.5773020518
H 2.7375751838 -2.2870966290 6.2976646446
H 0.5833419833 1.4851175988 7.8160488169
H 1.9724713923 0.6418795153 7.4962226183
H -1.5577263929 0.0279641605 7.5749945758
C 0.6490132699 -6.7647629606 1.5676015459
N 2.0500715654 -6.9604386050 1.8270332696
O -0.0888574299 -6.9183630142 2.7522228239
C 0.1809722536 -7.8137430255 0.4974977945
N -1.1562101197 -7.5550888273 0.1362469773
O 1.0582299818 -7.7712454420 -0.5798586640
Cl 0.3904740151 -9.5258647282 1.2956488148
H 2.6165971799 -7.2117435973 1.0239474891
H 2.4762555310 -6.2760600463 2.4416231121
H 0.1831317707 -7.7703734694 3.1446283976
H -1.5080723549 -8.2172995884 -0.5521863023
H -1.7638344122 -7.5718462730 0.9530159741
H 1.0447612420 -8.6230066450 -1.0505392569
O -2.0629846019 -0.5662550312 -0.0614540133
C -2.6585763171 -0.7567469930 -1.3874068616
C -3.6176537758 0.3650498274 -1.7039899871
C -4.3578335361 0.9090116233 -0.7207534116
C -4.1147296602 0.4462560389 0.6482116179
C -2.9989792923 -0.2346849588 0.9325654051
H -3.7329770030 0.6741965711 -2.7351991565
H -2.6738778068 -0.5567828462 1.9137331968
H -4.8203937972 0.6731707959 1.4376996055
H -3.1987912575 -1.7166388612 -1.3307476751
N -0.2772395027 -0.6061831861 -2.0348711041
C -1.5431136809 -0.8759503672 -2.4102458802
C -1.8710319690 -1.2274614715 -3.7191223327
C -0.8796765703 -1.2942152293 -4.7021220054
C 0.4352188078 -1.0025404684 -4.3046026361
C 0.6880591926 -0.6758147969 -2.9836910520
H -2.9002598438 -1.4376260745 -3.9909277626
H 1.6980355299 -0.4656020496 -2.6495430008
H 1.2406016559 -1.0399563400 -5.0297765470
C -1.2830533578 -1.5484491842 -6.1826378179
N -2.5915274172 -2.1602260454 -6.1965190293
O -1.3445742002 -0.2908212321 -6.8220559296
C -0.1708833257 -2.3605239561 -6.9423712485
N 0.9687583819 -1.5671217351 -7.2147805581
O 0.1039042855 -3.4720571939 -6.1590166359
Cl -0.9222428435 -3.0029469128 -8.5751103927
H -2.8881717319 -2.2705459035 -7.1663702507
H -2.5448475343 -3.1022013350 -5.8069356898
H -2.2482015841 0.0498845400 -6.7032775307
H 1.6690660482 -2.0779690364 -7.7496760648
H 0.7018740807 -0.7326574597 -7.7343143062
H 0.5194778370 -4.1570492581 -6.7104889044
C -5.3240356125 2.0723448240 -1.0030460951
N -4.8308460938 3.3348520094 -0.5029153227
O -5.4487654192 2.1251296769 -2.4041058958
C -6.7311322513 1.7906650862 -0.3663870721
N -7.1955993028 0.5268821644 -0.7725887978
O -6.6402882602 1.9282638901 1.0128249360
Cl -7.8899606001 3.1951045885 -0.9644889031
H -5.0623973907 3.5033893736 0.4709072098
H -3.8458623650 3.4822927359 -0.6991286759
H -5.9315479551 2.9501286779 -2.5998494105
H -8.1282292177 0.3164383120 -0.4234135655
H -7.1941835605 0.4494004071 -1.7874755970
H -7.5305987846 2.0348427117 1.3914267274
