124
# extracted from Terachem optimization
Co -0.0879329707 0.0498776409 -0.0194955412
O 0.4243528790 2.0426370949 0.3899742235
C 1.8214562694 2.4975441248 0.2656950076
N 2.0009131423 3.4944953360 1.2695573765
C 0.7102121449 4.2108347680 1.3234358284
C -0.3456699753 3.1346070542 0.9414159257
H -0.8788058642 2.7662109772 1.8170294476
H -1.0572285609 3.4842583831 0.1898843313
H 0.7177136512 5.0137239679 0.5818094782
H 2.1672539333 3.0578232249 2.1775653675
H 1.9063424521 2.9537392686 -0.7304399860
N 2.1275724991 0.0893867818 0.1460509344
C 2.7117319230 1.2841635829 0.3859760663
C 4.0587789864 1.4149983526 0.7045466716
C 4.8564028143 0.2696791400 0.7804734952
C 4.2556966799 -0.9638740585 0.5207627787
C 2.8996637761 -1.0121830713 0.2172875423
H 4.4890426541 2.3883341450 0.9042053414
H 2.4078739604 -1.9618371536 0.0356409032
H 4.8280758468 -1.8837598538 0.5552657318
C 6.3250703266 0.3920609766 1.1574839930
O 6.4608964232 1.5670558587 1.9060787357
C 7.2047076965 0.3828714959 -0.1288689475
N 7.2390710259 -0.8952616430 -0.7214523480
O 6.7785094152 1.3645555002 -0.9890614373
Cl 8.9946425642 0.8872401573 0.4784317958
H 6.6173629621 -0.4992355119 1.7352149363
H 7.4124598387 1.7411644280 2.0215464128
H 7.6424893444 -0.8769799434 -1.6550442493
H 7.7426706830 -1.5740737344 -0.1561222270
H 7.5132255997 1.6400989187 -1.5628008002
C 0.5272902580 4.8200218240 2.7143182078
O 0.6707041732 3.7530905443 3.6448091985
C -0.8118231452 5.5543652485 2.9943279988
N -1.9794891966 4.7675100343 2.8554994162
O -0.6765314724 6.0290469551 4.2872342152
Cl -0.8451732657 7.0651004825 1.8059483374
H 1.3135572025 5.5694269726 2.8635944450
H 0.5514672933 4.1293254902 4.5335424308
H -2.7636431426 5.1533735765 3.3746691915
H -2.2776942458 4.6134769636 1.8963722113
H -1.3178983471 6.7398774742 4.4560556452
O -0.3142950087 -2.0468432312 -0.0686237448
C -0.9378710423 -2.6905519068 1.0946834921
N -0.3727513008 -4.0005737625 1.1516456186
C -0.2589826018 -4.4229701211 -0.2605168222
C -0.1629532027 -3.0855651773 -1.0696743351
H 0.7999900674 -2.9538031385 -1.5578345746
H -0.9695986413 -2.9910760132 -1.8036475135
H -1.1639387849 -4.9729173926 -0.5373246042
H 0.5704712636 -3.9363508684 1.5391981422
H -2.0134159039 -2.7618077554 0.8772295634
N -0.3366724126 -0.5515269375 2.0784888943
C -0.6739558829 -1.8371785812 2.3092860401
C -0.7709072717 -2.3768647962 3.5871238354
C -0.4965998156 -1.5678595017 4.6932231277
C -0.1411616230 -0.2377824402 4.4545322551
C -0.0708805837 0.2256964862 3.1459527860
H -1.0325982708 -3.4178751250 3.7281579731
H 0.2228103681 1.2492679780 2.9443023444
H 0.0780784341 0.4383516262 5.2723223617
C -0.5559168566 -2.1583791861 6.0944041092
O -0.4463155722 -3.5470776645 5.9589801081
C -1.8684172807 -1.7129628176 6.8101651551
N -1.8181388931 -0.3536310105 7.1830050476
O -2.9521053899 -2.0140724776 6.0221402058
Cl -1.9863638617 -2.8346455748 8.4049739736
H 0.2729202786 -1.7392944625 6.6875388058
H -0.6350013789 -3.9505862691 6.8251372287
H -2.7260433898 -0.0043471807 7.4807942294
H -1.1406602470 -0.1773542245 7.9209129771
H -3.7430370764 -2.1155464152 6.5782852683
C 0.9524469484 -5.3466527927 -0.3925087860
O 2.1055844831 -4.5448936289 -0.1703753080
C 1.0921150150 -6.1042480931 -1.7392558221
N 0.8780393667 -5.3066706152 -2.8977309558
O 2.3742164821 -6.6359481654 -1.7278975953
Cl -0.1546799886 -7.5399268232 -1.6620239458
H 0.8713823768 -6.1177274318 0.3833541050
H 2.8775070221 -5.1249390409 -0.2912721239
H 1.3286907266 -5.7211056671 -3.7106631598
H -0.1109407161 -5.1950218308 -3.1066102137
H 2.3990909391 -7.4617379650 -2.2399529841
O -2.1740593581 0.4307276840 -0.2945050411
C -2.6019529935 0.5250994740 -1.7059820167
N -3.4544165323 1.6669434562 -1.7908730917
C -4.2021199374 1.6748479534 -0.5227916815
C -3.2064738915 1.0622890821 0.5118545665
H -2.7387665353 1.8181110306 1.1405046591
H -3.6716289700 0.2922788281 1.1344384199
H -5.0752044601 1.0238426857 -0.6297975266
H -2.8933178875 2.5185757684 -1.8462782286
H -3.1851580749 -0.3847702150 -1.9021350125
N -0.1895881402 0.3381405761 -2.1289978718
C -1.4095017817 0.6026224404 -2.6361868463
C -1.6044241548 0.9358277870 -3.9743184911
C -0.5032329728 1.0036316489 -4.8315273479
C 0.7589223252 0.7131593340 -4.3031509609
C 0.8705726382 0.3906575447 -2.9578680873
H -2.5945640602 1.1626916504 -4.3488316260
H 1.8307291584 0.1737425386 -2.5024050391
H 1.6456171628 0.7377376472 -4.9258594086
C -0.6997488786 1.4145196033 -6.2833550414
O -1.8938119770 2.1414096521 -6.3446547170
C -0.7043379484 0.1524842776 -7.1986542690
N 0.5838570069 -0.4102128131 -7.3050019489
O -1.6457981689 -0.7425835282 -6.7493788576
Cl -1.3038803324 0.7922637992 -8.9412127485
H 0.1659658860 2.0187752709 -6.5982036708
H -2.1071253464 2.2925019687 -7.2830164970
H 0.5665463809 -1.3317850235 -7.7352682511
H 1.2278090552 0.1837317163 -7.8216260855
H -1.9604734263 -1.2864644757 -7.4910507940
C -4.6942872266 3.1013782746 -0.2591451235
O -3.5449753646 3.9367447979 -0.1414149564
C -5.6156663042 3.3448403323 0.9657433132
N -5.0819191013 2.9331710834 2.2002828296
O -5.8643577679 4.7130701113 1.0749695189
Cl -7.2667011849 2.4795496589 0.5407387262
H -5.2795348603 3.3933372959 -1.1407033868
H -3.8761580907 4.8460744686 -0.0314356852
H -5.6379123007 3.3096881636 2.9651404706
H -5.0329757478 1.9237792702 2.2913974363
H -6.6039495501 4.9492850988 0.4893407611
