124
# extracted from Terachem optimization
Co 0.0780551062 0.0440766858 0.0469068103
N 0.5608429308 2.0648043059 -0.1694901123
C 1.8086134631 2.4909111630 -0.0010783310
N 1.8638335586 3.8265881488 -0.1782937801
C 0.5930289143 4.2879872505 -0.4747254645
C -0.2079892734 3.1750315840 -0.4653085343
H -1.2667293198 3.0953750296 -0.6502730017
H 2.6628030337 4.4454773926 -0.0935905675
O 2.4728230318 0.2552374265 0.0396281167
C 2.9767110367 1.5789965798 0.2659429978
C 3.5749068883 1.7392443909 1.6466157858
C 3.9242616434 0.6927453931 2.4018477933
C 3.7005786249 -0.7232083286 1.9174954421
C 3.4493734901 -0.7483483595 0.4158759730
H 3.7374899203 2.7534169333 1.9963318236
H 3.7545253461 1.7899275603 -0.4895748680
H 3.0429915512 -1.7042275421 0.0847147338
H 4.3713856905 -0.5467202795 -0.1448451568
H 4.5609130684 -1.3650048042 2.1411863174
H 2.8539554595 -1.1622936532 2.4589930586
C 4.5125318604 0.8970108364 3.7971795434
O 3.9380032732 2.0566665849 4.3133310386
O 4.1573329996 -0.2086654485 4.6364281233
C 6.0792293569 0.9665674272 3.8718647762
N 6.6614024608 -0.3170405344 3.6282156307
Cl 6.7301856178 2.3247468949 2.8287217809
H 4.3772129461 2.2908794512 5.1497458172
H 4.9149107986 -0.8342538796 4.6144420249
H 6.3255390569 1.2579271241 4.8963338999
H 6.7438474815 -0.5250425948 2.6349412444
H 7.5919047362 -0.3939664856 4.0336341182
C 0.3425180857 5.7806903048 -0.6117597643
O -0.4064421477 6.2817150980 0.4615217464
O 1.6213551429 6.3812447913 -0.5402973167
C -0.2838149314 6.2233479776 -1.9636504419
N 0.5487350545 5.8491118333 -3.0887721215
Cl -1.9544503065 5.5188925063 -2.1704881285
H -1.3574721875 6.2215440062 0.2601370852
H 1.5086292772 7.2321308686 -0.0777718195
H -0.4577707410 7.3013788905 -1.8834414507
H 0.2987506625 6.4235253548 -3.8945806922
H 1.5132542036 6.0930744035 -2.8515579212
N 0.2692502673 -1.9499064982 0.5001332135
C -0.0316064920 -2.3026404686 1.7487559155
N 0.0465951535 -3.6409192001 1.8759083266
C 0.4079411756 -4.1825101556 0.6539868049
C 0.5398854632 -3.1148779588 -0.1936384367
H 0.7831186671 -3.1132276019 -1.2425717255
H -0.1738485143 -4.2162028761 2.6811802354
O -0.2077431622 -0.0195314397 2.2357841658
C -0.5148626681 -1.3163778382 2.7793743408
C 0.0666519476 -1.5033388285 4.1589307832
C 0.4836216791 -0.4715744562 4.9047828136
C 0.3922136104 0.9476446670 4.4053040587
C -0.5123959974 1.0428639758 3.1808781790
H 0.0976522599 -2.5131939360 4.5547417337
H -1.6150793842 -1.4050811662 2.8457481758
H -0.3604793385 1.9708261621 2.6289353020
H -1.5704796598 0.9592133300 3.4587393620
H -0.0204275626 1.5920231247 5.1960431631
H 1.3937052025 1.3404132621 4.1918249209
C 1.0700229202 -0.7036653409 6.2914324920
O 1.3362149634 -2.0671132616 6.4196226063
O 2.1898339180 0.0924819123 6.5533771590
C 0.0780481904 -0.2504725753 7.4619591575
N -0.0215440342 1.1663894417 7.5466852568
Cl -1.5444189899 -0.9818318194 7.3381168809
H 1.8225697526 -2.2090073444 7.2504422129
H 2.8920090295 -0.0863932662 5.8822214751
H 0.5363548099 -0.6734292184 8.3713570882
H -0.8284073206 1.5532824974 8.0277842828
H 0.8620594165 1.6402263547 7.7137390117
C 0.6402585779 -5.6805858273 0.5659790681
O 1.9081996573 -6.0308906555 1.0606186726
O -0.3059707772 -6.2359735720 1.4552842974
C 0.4061893581 -6.2773767363 -0.8455793860
N -0.8722441732 -5.9176603392 -1.3621676265
Cl 1.7401409536 -5.6790648930 -1.9947938590
H 2.5516404031 -6.0087512371 0.3288065249
H 0.0362644453 -7.1090702478 1.7232243223
H 0.6274983783 -7.3498575680 -0.7837591500
H -1.1314842440 -6.5122341128 -2.1460116837
H -1.5741620823 -6.0263642213 -0.6311732790
N -1.9053236827 0.2321139824 -0.5340637587
C -2.2184924690 -0.0879285823 -1.7854685720
N -3.5579697292 -0.1024327486 -1.9318321771
C -4.1412367110 0.2182988852 -0.7185605140
C -3.0962661466 0.4245082366 0.1423958958
H -3.1317341773 0.6805255650 1.1881202644
H -4.1044369836 -0.3563495410 -2.7476049195
O 0.0527031560 -0.5079947912 -2.1792652256
C -1.1949810379 -0.3214185827 -2.8656074852
C -1.1634586132 0.8325400254 -3.8448263180
C -0.0323849895 1.4579708221 -4.1916978523
C 1.3029560868 0.9873880679 -3.6855057116
C 1.1958995641 -0.4004968255 -3.0638637778
H -2.1183842645 1.1444561378 -4.2552665168
H -1.4385054061 -1.2522965212 -3.4060908584
H 2.0565733004 -0.6256582336 -2.4344642360
H 1.1026358370 -1.1729682519 -3.8370794414
H 2.0198101346 0.9468050265 -4.5182975818
H 1.7094096924 1.7167580068 -2.9740077139
C -0.0546020456 2.6694989851 -5.1162016793
O -1.3470783249 3.1852547107 -5.1139198540
O 0.9187058498 3.6176818375 -4.7828641005
C 0.3697964885 2.2855969136 -6.6208344715
N 1.7518032790 1.9649293795 -6.7059908864
Cl -0.6217373424 0.9783794388 -7.3175863146
H -1.3967315614 3.9414032401 -5.7242969540
H 0.6124594165 4.2102086085 -4.0419346458
H 0.1336359125 3.1971805282 -7.1931005132
H 2.0450751181 1.3561031507 -7.4643149083
H 2.3788750713 2.7380333626 -6.5017331563
C -5.6521958290 0.3506360870 -0.6478500566
O -6.0767288894 1.6090305570 -1.1067337495
O -6.1369070825 -0.5981599922 -1.5748856210
C -6.2556714632 0.0303150927 0.7435431286
N -5.8296643245 -1.2424362115 1.2231461853
Cl -5.7620299304 1.3566424201 1.9526002668
H -6.0807602411 2.2363834515 -0.3609891552
H -7.0178654118 -0.2908439439 -1.8591617334
H -7.3380515738 0.1883340509 0.6691280130
H -6.4365128416 -1.5747949144 1.9690462106
H -5.8607560004 -1.9176202877 0.4603012576
