112
# extracted from Terachem optimization
Co -0.2688347691 -0.4578627127 -0.4138633773
O -0.3751677929 1.9721971648 -0.4713856314
C 0.9595788480 2.5220707606 -0.3624559350
C 0.8892132361 3.5567544768 0.7897257989
C -0.6033872140 3.8659392987 0.7981099615
C -1.2288940367 2.9321340091 0.0816178291
H -2.2690433903 2.7778288627 -0.1482185946
H 1.5136621378 4.4295601194 0.5816352403
H 1.2151711432 3.1483120772 1.7544181752
H 1.1691941268 3.0482687016 -1.3045357945
N 1.6148357572 0.1533028880 -0.2689576820
C 1.9530689268 1.3985836178 -0.2278457866
S 3.6590699742 1.7792384462 -0.0746962021
C 4.0628873116 -0.0256432472 -0.3280749055
C 2.7445967622 -0.7650613468 -0.0347775052
H 2.6916039423 -1.1001045559 1.0065881900
H 2.6412155232 -1.6486236123 -0.6645339724
H 4.3285737713 -0.1154801611 -1.3858722571
C 5.3245431841 -0.4327158811 0.4784777493
O 6.3224025091 0.3902701676 -0.0646416597
C 5.2196387958 -0.2691450125 2.0064817214
C 5.5583209318 -1.9557877918 0.2280791621
O 4.7089077023 -2.7757973824 0.4556817800
Cl 7.1707641495 -2.4091999965 -0.3185134855
H 7.1580849189 0.2758825890 0.4189235465
H 4.4327511444 -0.8953087166 2.4350813810
H 6.1658404231 -0.5639879311 2.4739315152
H 5.0304748139 0.7789112121 2.2512039560
C -1.1468154446 5.0682563025 1.5596099744
O -0.4161907553 5.2548072841 2.7463629925
C -0.9740029962 6.3689138757 0.7436130793
C -2.6723742531 4.9095586808 1.7959780624
O -3.4228094666 4.3988351637 1.0092528061
Cl -3.2781647028 5.6138138705 3.3026425505
H -0.6189263270 4.5385030227 3.3765471134
H -1.5133403621 6.3150985424 -0.2051817698
H -1.3383055722 7.2172708369 1.3290530098
H 0.0911622871 6.5254283116 0.5503726767
O -0.1876678649 -2.7047347147 -0.1763760909
C -0.3279665879 -3.0977686382 1.2196450802
C 0.9120794805 -3.9764426875 1.5407694683
C 1.4155511890 -4.3173302470 0.1453665076
C 0.7664823918 -3.5640569410 -0.7401201173
H 0.8391115283 -3.5021605021 -1.8135598098
H 0.6342869667 -4.8588974204 2.1235446038
H 1.6772664632 -3.4431675334 2.1177479806
H -1.2469381242 -3.6915527829 1.2940284569
N -0.4134488729 -0.6703407134 1.5325212792
C -0.4756986138 -1.8514377939 2.0529309413
S -0.7605934206 -1.9625674613 3.7776097007
C -1.0709702837 -0.1197749487 3.8236203351
C -0.4276325707 0.4112867630 2.5303967597
H 0.6115419759 0.7212362079 2.6926110975
H -0.9735802755 1.2677411963 2.1386639229
H -2.1588584717 -0.0036161821 3.7862991681
C -0.6088720946 0.4737524543 5.1797832858
O -1.3793663557 -0.2428193450 6.1121506598
C 0.8981582560 0.3641739163 5.4763698938
C -0.9461586923 1.9960940200 5.1657029000
O -0.8075554124 2.6976268182 4.1993300299
Cl -1.4678827949 2.6554259467 6.7197548684
H -1.0917867963 -0.0396699140 7.0187147198
H 1.5071356321 0.9033108801 4.7446653370
H 1.1124542003 0.7921241542 6.4616668896
H 1.1932780318 -0.6883473396 5.4901863962
C 2.4700632393 -5.3967205647 -0.0532156516
O 3.3937959723 -5.3756425473 1.0163484763
C 1.8166867849 -6.7930884844 -0.0300898675
C 3.1906730941 -5.2228013258 -1.4196325270
O 2.8145877789 -4.5428003228 -2.3293035095
Cl 4.6962057379 -6.1700242639 -1.5576662516
H 3.9984310221 -4.6190868533 0.9074851552
H 1.0929521034 -6.9054580141 -0.8419808961
H 2.5897460527 -7.5598155609 -0.1154383872
H 1.3058278542 -6.9300261959 0.9275194566
O -2.2743347560 -0.8020472067 -0.6313119864
C -2.7437157355 -0.6273553718 -2.0139802152
C -3.7162180161 0.5749915287 -1.9643140168
C -4.0903829754 0.6007693407 -0.4859258205
C -3.2404632152 -0.1715276804 0.1855201525
H -3.1664546378 -0.4225660827 1.2280816137
H -4.5742350722 0.4098344452 -2.6208613656
H -3.2490182358 1.5174147542 -2.2732004808
H -3.2830051628 -1.5460931439 -2.2700293558
N -0.3560999039 -0.4065496054 -2.3590207627
C -1.5318694960 -0.4896976548 -2.8883457126
S -1.6582333854 -0.4776097885 -4.6295644939
C 0.2056078731 -0.6120049308 -4.7364106654
C 0.7196329564 -0.2020976170 -3.3411404751
H 1.0072947167 0.8547991063 -3.3081529409
H 1.5915559784 -0.7928069743 -3.0631849077
H 0.4028233373 -1.6712353051 -4.9229098675
C 0.7377830671 0.1609264879 -5.9683987507
O 0.0388786382 -0.4339678064 -7.0383179681
C 0.5347362497 1.6846308051 -5.9327066127
C 2.2684715265 -0.1140492712 -6.0523612386
O 2.9758504554 -0.3348510032 -5.1151279739
Cl 2.9226485641 -0.0049079904 -7.7113284149
H 0.2694188032 0.0089123674 -7.8732620260
H 1.0668120384 2.1583995416 -5.1016770602
H 0.9143452154 2.1268767230 -6.8589763146
H -0.5321517629 1.9104073963 -5.8554208647
C -5.2688775696 1.4384662786 0.0008803208
O -5.2100483472 2.7064145897 -0.6312426315
C -6.5973520013 0.7833709266 -0.4265482107
C -5.2664266713 1.5764130612 1.5476665942
O -4.5776428340 0.9564140139 2.3069281950
Cl -6.4322763678 2.7740572668 2.1594309337
H -4.7309316333 3.3510694281 -0.0785624768
H -6.7050696015 -0.2161742085 0.0048395401
H -7.4340622189 1.4110129839 -0.1144055953
H -6.6223508194 0.7073849063 -1.5170844517
