151
# extracted from Terachem optimization
Co -0.1676807901 -0.0298980329 0.0556500571
O -0.2439065427 1.9703936793 0.4070736293
C 0.9086076148 2.8879681927 0.1480630469
N 1.1882931083 3.7216210570 1.2463418137
C 0.0845310465 4.5356624087 1.8187208600
C -1.2430395383 3.7286097079 1.8154134828
C -1.4271848915 2.7983196144 0.6187615940
H 0.3563707741 4.6697719979 2.8671458846
H 1.7036299207 3.2291053361 1.9689452150
H 0.5703104765 3.4991192478 -0.6926315548
H -2.2526689491 2.1063901634 0.7725301913
H -1.6037941028 3.3610484208 -0.3068659281
H -2.1115433487 4.3901866901 1.8699055139
H -1.2741210907 3.1248235336 2.7288718079
O 1.7968023132 0.6130070620 -0.2174364609
C 2.1233760389 2.0303111279 -0.3112107768
N 3.2790727146 2.2774772058 0.4989610031
C 4.5347690577 1.5730534702 0.1739858001
C 4.1966857007 0.0801149543 -0.0547207388
C 2.8886266666 -0.1672800577 -0.7993011848
H 5.1212662318 1.6189605558 1.0953111060
H 3.4129966371 3.2709251627 0.6610793438
H 2.2688338911 2.2035358022 -1.3879987539
H 2.5640016094 -1.2027664881 -0.7179522894
H 2.9628209146 0.1015505772 -1.8581397765
H 4.9980994839 -0.4233557157 -0.6055447360
H 4.1471758981 -0.4047842431 0.9263601813
C 5.4577372896 2.2505245524 -0.9152063309
C 4.8938257678 2.2513272525 -2.3500915725
C 5.7793343510 3.7018696135 -0.4938861057
C 6.7548719672 1.4146812624 -0.9564798567
O 7.1021934390 0.7265847265 -1.8638431358
Cl 7.7610374318 1.4855076901 0.5520148997
H 3.9981207892 2.8773487878 -2.4166036845
H 5.6313629917 2.6721176119 -3.0390586810
H 4.6656624730 1.2465760165 -2.7131138240
H 6.1212343303 3.7687151712 0.5420963351
H 6.5622451011 4.1252712513 -1.1302044783
H 4.8942128601 4.3363794602 -0.6179904135
C 0.0241096151 5.9974907134 1.2449358632
C 1.4272243684 6.6441309217 1.3257861094
C -0.5108014707 6.0945113983 -0.1982390057
C -0.8936971317 6.7749692868 2.2148611665
O -1.3401702740 6.3421085689 3.2352824198
Cl -1.2483531000 8.4723180108 1.7378238323
H 2.1170810751 6.1095246751 0.6678505920
H 1.3888371074 7.6893400248 1.0113129332
H 1.8277181889 6.6083973740 2.3448127085
H 0.1585740802 5.5677110609 -0.8865048393
H -1.5216217047 5.6848845665 -0.2978684087
H -0.5486787775 7.1351474599 -0.5261195972
O 0.4159684183 -2.0370857286 0.0271400478
C 0.3227448026 -2.8385029429 1.3195759759
N 1.1643222632 -3.9542362491 1.3409859218
C 1.2258307745 -4.8884951129 0.1958524662
C 1.0482496202 -4.1108361623 -1.1341353911
C 0.0658239645 -2.9480867987 -1.0609164845
H 2.2493617864 -5.2672807644 0.1951166908
H 2.0744391459 -3.7254582176 1.7276962900
H -0.7361884888 -3.1104713138 1.3536826617
H 0.0837887782 -2.3470641527 -1.9680354701
H -0.9620473214 -3.2888792192 -0.8872601353
H 0.7347228190 -4.7729407713 -1.9454308556
H 2.0259649146 -3.7137236017 -1.4315176909
O -0.0753478501 -0.6425999878 2.1962043757
C 0.6553460980 -1.8780360736 2.4608625226
N 2.0602495420 -1.6833288521 2.6264803387
C 2.4657021766 -0.7042940733 3.6692706693
C 1.5394939960 0.5413196685 3.6330022791
C 0.0700516399 0.2282311044 3.3562548168
H 3.4541513712 -0.3655156434 3.3508385706
H 2.4633574354 -1.3909478133 1.7391466945
H 0.2359191664 -2.2906821422 3.3818935762
H -0.4910048208 1.1324675753 3.1232203577
H -0.4180604792 -0.2718675738 4.1992468208
H 1.6030138419 1.1138838095 4.5653859838
H 1.9075552818 1.1877314137 2.8281530386
C 2.7171348774 -1.3531251251 5.0780246765
C 1.4495961378 -1.8193679972 5.8236689454
C 3.6977558657 -2.5388390777 4.9483753092
C 3.3528608428 -0.2498577491 5.9506224566
O 2.8715548631 0.2468859515 6.9169032286
Cl 4.9912070678 0.3308165343 5.3766295969
H 0.9738088688 -2.6487719417 5.2921621301
H 1.7178999903 -2.1860802598 6.8178450358
H 0.7262726395 -1.0138107785 5.9714898103
H 4.6031170003 -2.2683637776 4.3996688947
H 3.9964233939 -2.8978798661 5.9379359697
H 3.2063350628 -3.3615562048 4.4229900898
C 0.3335686537 -6.1665330879 0.3925517302
C 0.6808679288 -6.8277396253 1.7493961947
C -1.1809718280 -5.8913421063 0.3308158910
C 0.7693390649 -7.1537363869 -0.7094217791
O 1.7147854335 -7.0121371024 -1.4253581386
Cl -0.2318383863 -8.6471087350 -0.8398989930
H 0.4317208362 -6.1410097560 2.5625294623
H 0.1121952928 -7.7505680967 1.8834766714
H 1.7468366858 -7.0708808562 1.8162464924
H -1.4642514452 -5.1910739282 1.1243428671
H -1.4983610552 -5.4863752485 -0.6365333163
H -1.7459140474 -6.8104620328 0.4980449472
O -2.2271016149 -0.1750222138 -0.0099076020
C -2.8266582920 -0.6542966934 -1.3273501049
N -4.2044364286 -0.4333404804 -1.4300200666
C -5.1197884651 -0.8071226074 -0.3304003044
C -4.4302272365 -0.5505150178 1.0326512875
C -2.9408495336 -0.8714037774 1.0621092357
H -5.9448048150 -0.0953041838 -0.3933174339
H -4.4122054019 0.4689617752 -1.8446307159
H -2.5736189132 -1.7179374037 -1.3240834326
H -2.4813243301 -0.5370205922 1.9896240518
H -2.7466835531 -1.9443883444 0.9477415364
H -4.9159770036 -1.1051721869 1.8400589185
H -4.5554440938 0.5103771663 1.2799217284
O -0.6571412130 -0.0427091963 -2.1755731669
C -2.0818584338 0.0522398393 -2.4604354652
N -2.5364442916 1.3920441132 -2.6723315079
C -1.8108782520 2.1763338017 -3.7058693940
C -0.2822351599 1.8878239733 -3.6480078188
C 0.0814442181 0.4393361065 -3.3293613727
H -1.9386147170 3.2181355283 -3.4052452398
H -2.5281730028 1.9029842148 -1.7934264517
H -2.2510732157 -0.5278834059 -3.3712306375
H 1.1366957811 0.3406076466 -3.0741731576
H -0.1318637804 -0.2369970367 -4.1645422356
H 0.2166117933 2.1746246154 -4.5800150251
H 0.1447001425 2.5219213727 -2.8609941520
C -2.4861893352 2.0997085508 -5.1237856597
C -2.5072444233 0.6963759642 -5.7607560613
C -3.9318059008 2.6404797960 -5.0431503577
C -1.6658560544 3.0006557673 -6.0680819242
O -1.1107117361 2.6570511178 -7.0594986895
Cl -1.5568895545 4.7549126042 -5.5447173790
H -3.1466685765 0.0264161013 -5.1782338129
H -2.9282528314 0.7493843948 -6.7679551807
H -1.5097329831 0.2601595959 -5.8614395143
H -3.9711287674 3.6446145053 -4.6139758301
H -4.3809837982 2.6788251196 -6.0400770149
H -4.5355172455 1.9709124137 -4.4248478246
C -5.7963886586 -2.2089079024 -0.5466509480
C -6.4890052996 -2.2241367364 -1.9325113374
C -4.8252457133 -3.4018478477 -0.4519241682
C -6.9141000292 -2.3086915559 0.5098870848
O -7.2882157773 -1.4131437432 1.2053746115
Cl -7.7218724111 -3.9179480230 0.6198043430
H -5.7345755207 -2.1173414632 -2.7165488431
H -7.0233805434 -3.1641705147 -2.0877806262
H -7.2076189984 -1.4032584491 -2.0304718428
H -4.0508393867 -3.3080543308 -1.2209007192
H -4.3493365169 -3.4846196770 0.5314791476
H -5.3510916283 -4.3401607830 -0.6380411091
