130
# extracted from Terachem optimization
Co 0.1078571784 -0.0007224161 -0.0593307197
O 0.1377524837 2.1288433802 -0.2871816720
C 1.3832938534 2.7935304449 -0.5903117168
S 1.6137657648 3.9863580955 0.7796418881
C -0.1523288918 4.4414791749 0.5083312799
C -0.8543998242 3.1157606172 0.1619078135
H -1.3245641972 2.7019123993 1.0496033678
H -1.5926108308 3.2349454006 -0.6317239649
H -0.2061257991 5.1288722965 -0.3393593813
H 1.2373091562 3.3771408672 -1.5066602893
O 2.1921637413 0.5784585010 -0.0765603884
C 2.4993987598 1.7752344955 -0.8422779812
C 3.8848749355 2.3398623381 -0.5121993055
C 5.0171921682 1.3068474719 -0.6457934049
C 4.6168038227 0.0780575563 0.1916200831
C 3.2345102913 -0.4567201238 -0.1515728440
H 5.9157881541 1.7361551911 -0.1901734453
H 4.0596468781 3.2058633678 -1.1622803793
H 3.8788876659 2.7087952843 0.5204324783
H 2.4803215258 1.4996807757 -1.8994869576
H 2.9172089096 -1.2168857185 0.5604374358
H 3.2317474838 -0.8681880810 -1.1628394964
H 5.3256526068 -0.7470874570 0.0636480888
H 4.6444329860 0.3562051134 1.2526760548
C 5.4420066718 1.0363027885 -2.0989659886
O 4.3719215009 0.3884536975 -2.8143744459
C 6.7318561365 0.2059630379 -2.2161080384
N 7.8344874842 0.8586293388 -1.5162871498
H 5.6328479837 2.0203583693 -2.5609913695
H 4.6911192842 0.2155233477 -3.7155064400
H 6.5678149052 -0.7793631595 -1.7660035381
H 6.9173954744 0.0266437745 -3.2930743322
H 8.6119619083 0.2144306947 -1.3934763320
H 8.1947593741 1.6428700131 -2.0575490534
C -0.7697758558 5.1669050217 1.7215452385
O -0.8459315481 4.3316573492 2.8749542307
C -2.2017055332 5.6453070142 1.4290408351
N -2.2537010378 6.4177745241 0.1848586421
H -0.1439047602 6.0469435819 1.9294030399
H -0.0156588806 4.4127909608 3.3681532711
H -2.8479664329 4.7694251725 1.3083850851
H -2.5504566062 6.1818361513 2.3249315601
H -3.2236400195 6.5544296863 -0.0917010407
H -1.8740637621 7.3526706886 0.3307609938
O 0.1812368908 -2.1609972788 0.1767146341
C -0.0342447833 -2.6195666992 1.5353835395
S 1.5503578159 -3.3862975952 2.0427437809
C 1.5790042353 -4.1728841096 0.3731584459
C 1.0190155874 -3.1027354106 -0.5735184583
H 1.8236847186 -2.5180723106 -1.0136367874
H 0.4100051625 -3.5534719356 -1.3582433086
H 0.9087863141 -5.0363327217 0.3896591510
H -0.7914273391 -3.4120117347 1.5052301936
O 0.1183081382 -0.2687511647 2.0656536686
C -0.5720426945 -1.4950244734 2.4239655017
C -0.4436377631 -1.8243042689 3.9157201222
C -0.8627583620 -0.6586878877 4.8325760352
C -0.0354254093 0.5718429669 4.4049862110
C -0.1563035612 0.8945543531 2.9222878579
H -0.5618508537 -0.9170289587 5.8534949135
H -1.0418002677 -2.7215727900 4.1173248977
H 0.5996135356 -2.0762444833 4.1411212513
H -1.6276554207 -1.3540273926 2.1934562498
H 0.5761294583 1.6364657334 2.6003235199
H -1.1633991551 1.2469898174 2.7004029793
H -0.3287755730 1.4696679862 4.9602403861
H 1.0165157362 0.3821057778 4.6523168456
C -2.3885556060 -0.4643987438 4.9382314739
O -2.9013584636 -0.0046619193 3.6790682564
C -2.8049271179 0.4974158683 6.0649571827
N -2.3286888812 0.0178725946 7.3596012368
H -2.8175431598 -1.4553878111 5.1658033444
H -3.8772168247 -0.0248576806 3.6652685225
H -2.3659893141 1.4828849500 5.8746412493
H -3.9016125172 0.6305998881 6.0007242895
H -2.3637508794 0.7602302233 8.0537888230
H -2.9208721995 -0.7327431024 7.7104380902
C 2.9842732758 -4.6760394128 -0.0198765365
O 3.9609033327 -3.6390848413 -0.0127684814
C 3.0168189767 -5.2699287967 -1.4377272205
N 1.8810305565 -6.1655757963 -1.6866631049
H 3.2600213005 -5.4607506114 0.6993400113
H 4.3086711209 -3.5468766494 0.8875179766
H 2.9583505196 -4.4406091296 -2.1532160443
H 4.0075855390 -5.7298617864 -1.5710092837
H 1.9371372922 -6.5109743848 -2.6437729706
H 1.9618068630 -6.9991505511 -1.1032120342
O -2.0223612066 -0.3216555374 -0.1710056889
C -2.5821885930 -0.6844100458 -1.4467710849
S -3.7029415702 0.7009176157 -1.8949314293
C -4.2940390663 0.6279879809 -0.1431838132
C -3.0456572976 0.2894488391 0.6794649228
H -2.5987034795 1.1817797970 1.1067537110
H -3.2929025485 -0.4023496402 1.4807267228
H -5.0126503820 -0.1947597472 -0.0726819045
H -3.2132307769 -1.5693431877 -1.3009297436
O -0.3129172302 -0.2350886780 -2.2111452033
C -1.4819967426 -1.0721605772 -2.4336980088
C -1.9618787263 -1.0001234279 -3.8877913592
C -0.8678493502 -1.3623299365 -4.9104962735
C 0.3700109802 -0.5030350604 -4.5845729251
C 0.7848856723 -0.5809677147 -3.1222749683
H -1.2242298735 -1.0609659838 -5.9014595102
H -2.8343463495 -1.6560919194 -3.9973220923
H -2.3024247202 0.0227226019 -4.0920424499
H -1.1945807909 -2.1005134068 -2.1988420634
H 1.5766457333 0.1320661487 -2.9000620389
H 1.1251876621 -1.5874354628 -2.8752573650
H 1.2350601292 -0.7902499050 -5.1927145359
H 0.1452562625 0.5404364412 -4.8387431803
C -0.6368572660 -2.8763232814 -5.0598628259
O -0.0741363693 -3.4121283947 -3.8476970779
C 0.2484424893 -3.2468916380 -6.2621263755
N -0.3457704998 -2.7688093682 -7.5069693748
H -1.6295818815 -3.3299867047 -5.2226302770
H 0.0087700027 -4.3741452241 -3.9533536753
H 1.2322790686 -2.7795035217 -6.1437134828
H 0.4195069370 -4.3401403283 -6.2271991156
H 0.3357838214 -2.7873884595 -8.2615966514
H -1.1132117556 -3.3721746344 -7.7972969594
C -5.0097474157 1.9291210113 0.2928189017
O -4.2423806007 3.0937359618 0.0092190695
C -5.2854529050 2.0255877661 1.8067536946
N -5.7031879973 0.7589797479 2.4352395467
H -5.9650875913 1.9649503295 -0.2503117348
H -4.2646876996 3.2618546618 -0.9462623980
H -4.3546254510 2.3431558280 2.2893837683
H -6.0061264777 2.8445381271 1.9404147585
H -6.0333938090 0.9745252077 3.3765274692
H -6.5252834446 0.3815729106 1.9612028278
