139
# extracted from Terachem optimization
Co -0.1174576184 0.0160861903 0.3287579038
N 0.3987891043 2.3485421015 0.3271297904
C -0.5900853904 3.1822886181 0.2159022130
S -0.6054103967 4.9078009183 0.0300008436
C 1.1902211333 5.2793202003 -0.3394710477
C 2.0798991564 4.1488980704 0.1028014206
C 1.7111737607 2.8848548144 0.3577927742
H 1.2534409827 5.3901248725 -1.4278452795
H -1.5981762218 2.7828537991 0.2765321262
H 2.4716110313 2.1623352187 0.6233429027
H 3.1349021854 4.3914519133 0.1750375767
C 1.4980480945 6.6873139408 0.2778616276
N 0.3568577315 7.5312975962 -0.0681593163
C 1.6121094869 6.6301661614 1.8092152361
C 2.8264011630 7.2856600168 -0.2723797631
O 3.9146309693 6.5250155859 0.1053995198
Cl 2.7728794361 7.4606150151 -2.1291849621
H 0.3222998797 8.3751482463 0.4991418615
H 0.3755941386 7.8086424347 -1.0483386540
H 2.4045916918 5.9494556021 2.1258703215
H 1.8384527128 7.6244480147 2.2113425015
H 0.6621402575 6.2994869437 2.2380297525
H 2.9041079942 8.3256935220 0.0594256214
H 4.7330651255 6.9959229943 -0.1252240969
N 2.0674927068 -0.4386683145 0.4011347399
C 2.7233155302 -0.2218567148 1.5004100151
S 4.4083140136 -0.4017922834 1.8635825270
C 5.1381095220 -0.6535083780 0.1604586454
C 4.0973626910 -1.1424369222 -0.8109678327
C 2.7703127859 -0.9928932090 -0.6982552307
H 5.4991834758 0.3315297148 -0.1557309564
H 2.1502453796 0.1067669727 2.3628787525
H 2.1205679444 -1.3319296267 -1.4945513123
H 4.4854210302 -1.6052418764 -1.7122022225
C 6.3990899714 -1.5635013576 0.3463823193
N 7.0938899004 -1.0484739476 1.5243673728
C 6.0187613017 -3.0292027590 0.6115255198
C 7.3251028734 -1.5367090184 -0.9050060055
O 6.7024600822 -2.0931745510 -2.0052118075
Cl 7.8929050605 0.1984084946 -1.2935931521
H 7.7587797710 -1.7228280975 1.8959233995
H 7.5965772493 -0.1858883096 1.3208237968
H 5.4193805942 -3.4421923683 -0.2020451957
H 6.9205623954 -3.6443452420 0.7117552731
H 5.4549334611 -3.1049871707 1.5456617046
H 8.2632849286 -2.0415859762 -0.6548220857
H 7.3497197058 -2.1963925771 -2.7229604746
N -0.7297855438 -2.2257714634 0.3699254536
C -1.9704875625 -2.6077669241 0.3649479038
S -2.6692567655 -4.1908261807 0.4670782398
C -1.1912059145 -5.2472870560 0.9169082621
C 0.1015987801 -4.5405201009 0.6098117122
C 0.2743271055 -3.2266370431 0.4077616681
H -1.2682836445 -5.4154029640 1.9967980516
H -2.7289179252 -1.8389104852 0.2457418747
H 1.2709258095 -2.8406365672 0.2415928969
H 0.9810080194 -5.1762228415 0.5989613104
C -1.3994962288 -6.6390549330 0.2312385345
N -2.7872805429 -7.0072363743 0.5045142043
C -1.2070787466 -6.5678028653 -1.2917669467
C -0.4161620115 -7.7156758742 0.7784043726
O 0.8914770641 -7.4259861140 0.4377068412
Cl -0.5758989085 -7.9058414436 2.6266906735
H -3.1089003214 -7.7531252766 -0.1079630848
H -2.9147846205 -7.3114910336 1.4686554451
H -0.2121471175 -6.2018043482 -1.5532223249
H -1.3291202199 -7.5615284581 -1.7380068110
H -1.9606616833 -5.9065183855 -1.7285779015
H -0.7369187101 -8.6954644725 0.4111358297
H 1.4564943216 -8.1832347665 0.6663964616
N -2.3160183970 0.5279737332 0.3240313268
C -2.9886579060 0.6182227887 1.4318205407
S -4.6618452010 0.9601939536 1.7134346011
C -5.3830114206 0.8744963781 -0.0128895621
C -4.3101609781 0.9721532836 -1.0642299051
C -2.9934991426 0.7857190412 -0.8953466532
H -5.8711085950 -0.1041001779 -0.0805415968
H -2.4344100089 0.4917122049 2.3568825328
H -2.3292865557 0.8336167686 -1.7473996529
H -4.6686765320 1.1699665149 -2.0691778739
C -6.5229556776 1.9476587702 -0.0732205887
N -7.2710603151 1.7940126012 1.1723032241
C -5.9629851060 3.3773953892 -0.1305329023
C -7.4449293577 1.7517476204 -1.3123453662
O -6.7541543580 1.9621528153 -2.4896911550
Cl -8.2242802336 0.0563618675 -1.3140669305
H -7.8451404217 2.6086645055 1.3756788076
H -7.8752906842 0.9738702936 1.1546127640
H -5.3338142450 3.5263625889 -1.0102707115
H -6.7812123395 4.1054587019 -0.1729939429
H -5.3775021507 3.5806630274 0.7704510098
H -8.3114139531 2.4117551326 -1.2087210114
H -7.3810422132 1.9856992929 -3.2322537221
N -0.1737644882 0.0227713477 2.6238063429
C -0.2109927828 -1.0934716196 3.2883714294
S -0.2646094341 -1.3825704694 4.9965100890
C -0.6722833386 0.3219323028 5.6537860650
C -0.2684717710 1.3922695713 4.6740072214
C -0.0972689515 1.2365636233 3.3537290205
H -1.7600238313 0.3361623946 5.7872493827
H -0.1595007106 -2.0145361001 2.7133695918
H 0.1374718422 2.0860676789 2.7260627544
H -0.1665996193 2.3899852018 5.0879099944
C -0.0374163570 0.4135592362 7.0829874096
N -0.3179624680 -0.8654895623 7.7302550489
C 1.4876479284 0.5977402206 7.0240360578
C -0.6269921120 1.6012760338 7.8987292857
O -0.3298229738 2.8122985345 7.3058489727
Cl -2.4720305326 1.4249532723 8.1103867920
H 0.2730787124 -1.0174334240 8.5441719787
H -1.2905503343 -0.9377183835 8.0249337761
H 1.7645011419 1.5046422824 6.4832429174
H 1.9014141407 0.6688327903 8.0366851986
H 1.9469008436 -0.2658386996 6.5345273464
H -0.2622365738 1.5343675638 8.9283509817
H -0.5646568915 3.5349327999 7.9119562496
N 0.0066190191 0.0253192347 -1.8750217109
C 0.6896293771 0.9499712159 -2.4781028547
S 1.0172247211 1.1830199583 -4.1632170475
C -0.1804358276 -0.0147427795 -4.9605649528
C -0.6217965083 -1.0765208962 -3.9881649702
C -0.5543063913 -1.0174154133 -2.6510972557
H -1.0430922494 0.5890613888 -5.2643807505
H 1.1879425903 1.6923847432 -1.8599031828
H -0.9394952584 -1.8298022521 -2.0494799698
H -1.0825293105 -1.9507124226 -4.4357687571
C 0.5027145738 -0.5239423275 -6.2764172515
N 1.1262096444 0.6482445716 -6.8883746574
C 1.6017790874 -1.5587746716 -5.9867424707
C -0.5248989398 -1.1799999458 -7.2439739210
O -1.0815058479 -2.3146829841 -6.6879394621
Cl -1.8651445949 0.0251421726 -7.7270748857
H 1.8234555349 0.3870349157 -7.5814115357
H 0.4391310080 1.2497959534 -7.3400030816
H 1.2028909889 -2.4335545639 -5.4700818904
H 2.0607979659 -1.8985401934 -6.9223931501
H 2.3832404271 -1.1023280850 -5.3725372847
H -0.0290453620 -1.3776513307 -8.1992560334
H -1.6089717051 -2.7779874821 -7.3601768720
