145
# extracted from Terachem optimization
Co 0.1960647654 0.0698557453 0.1666622039
O 0.7208299894 2.0117117649 0.6372891405
C 1.7234741179 2.4243420097 -0.3370864134
C 2.1538256966 3.8542820272 -0.1936149190
C 1.5862402583 4.7125904640 0.6544847519
C 0.4744511417 4.2594208588 1.5684658772
C -0.2411313885 3.0630511038 0.9670665022
H 2.9257753017 4.1846462547 -0.8826381997
H 1.2659459849 2.2929345216 -1.3256519433
H -0.9304728255 2.6092354730 1.6751314341
H -0.7816854428 3.3379205036 0.0570447572
H -0.2595216007 5.0587897897 1.7100795074
H 0.8616840492 4.0159813752 2.5670305416
O 2.2245930629 0.1057820693 -0.2805101988
C 2.8669034723 1.4194431750 -0.2148319046
C 3.7270815890 1.5311192442 1.0401072184
C 4.7893511774 0.4113699440 1.1299958940
C 4.1320534589 -0.9634257277 0.8745782853
C 3.1889023755 -0.9874686275 -0.3253914619
H 5.1701650760 0.4200031089 2.1572690648
H 4.2259949620 2.5033821992 1.0438351474
H 3.0806959242 1.4892933510 1.9249816929
H 3.4981729649 1.5122159697 -1.1048827508
H 2.5791831767 -1.8901049977 -0.3296692494
H 3.7315994487 -0.8986489764 -1.2688387528
H 4.8860130494 -1.7461424376 0.7205750670
H 3.5668934939 -1.2492150212 1.7694618604
C 6.0150011540 0.6928293741 0.2297195076
O 5.6740189476 0.6642049754 -1.1284443206
O 6.4950561705 1.9714107842 0.6176433468
C 7.1901201986 -0.3204825534 0.4352516962
O 7.6230595282 -0.8742079186 -0.5611145002
C 7.7832861356 -0.5024396056 1.8053549896
H 6.3640301264 0.1009214368 -1.5522816093
H 7.0849578631 2.2893803657 -0.0877183397
H 8.7406635539 -1.0199374894 1.7224271622
H 7.9124772431 0.4649555236 2.2997060520
H 7.1138088430 -1.1066488945 2.4316869608
C 1.9552722191 6.1838868952 0.6884202241
O 2.0590401186 6.6746525642 2.0081018177
O 3.1589694594 6.3524276607 -0.0234921417
C 0.8145412060 7.0286483683 0.0212281759
O -0.1114147036 6.4623953948 -0.5257643586
C 0.9455499060 8.5318129749 0.0801368965
H 2.8277671540 6.2451918540 2.4241283708
H 3.4186696485 7.2868090695 0.0449715745
H 0.9869915823 8.8670761885 1.1217926903
H 1.8684164731 8.8712485527 -0.4068369155
H 0.0940194633 8.9866924969 -0.4285295792
O 0.0457557963 -1.9735311828 0.0544347254
C -0.9234719520 -2.4474456421 1.0391553095
C -1.1577867143 -3.9279517752 0.9822416076
C -0.6001531975 -4.7294234797 0.0733128810
C 0.3532229532 -4.1719558319 -0.9573719036
C 0.0284229001 -2.7111348738 -1.2104838031
H -1.8805134880 -4.3142940795 1.6951202631
H -1.8707393066 -1.9340418150 0.8236033084
H 0.7751106096 -2.2243726340 -1.8374244856
H -0.9588554765 -2.6059772091 -1.6700540600
H 0.2605101190 -4.7137803257 -1.9017495841
H 1.3959134940 -4.2808699980 -0.6306107996
O -0.0654705633 -0.5472184527 2.1701670052
C -0.4310657930 -1.9439971692 2.3988839483
C 0.7485650922 -2.6891243579 3.0130442798
C 1.2274459049 -2.0349234585 4.3315119879
C 1.4216728576 -0.5149530725 4.1301524360
C 0.2664095574 0.1626151890 3.3961649562
H 2.2031430823 -2.4733834808 4.5689110848
H 0.4653840522 -3.7265204516 3.2056944063
H 1.5745641929 -2.6955386646 2.2916539808
H -1.2797205590 -1.9551205117 3.0891594677
H 0.5415639046 1.1671923347 3.0712637872
H -0.6341720577 0.2072936824 4.0131993651
H 1.5661405663 0.0043403236 5.0859663414
H 2.3368893206 -0.3596389569 3.5467897483
C 0.3088100067 -2.3819172116 5.5288516632
O -0.9674693213 -1.8262695080 5.3715690217
O 0.2525762394 -3.7982993890 5.5861166860
C 0.8642492368 -1.8807674995 6.9038093687
O 0.1246694745 -1.1832415612 7.5776735900
C 2.2244159403 -2.3284820452 7.3636821023
H -1.1671944768 -1.3941534583 6.2355233152
H -0.5218072831 -4.0379852814 6.1239397317
H 2.3404843773 -2.1132110562 8.4273553797
H 2.3644185387 -3.3962965672 7.1716678368
H 3.0054081005 -1.7895727126 6.8112658366
C -0.9561573027 -6.2011260457 -0.0381216948
O 0.1870473382 -7.0034239352 -0.2498395155
O -1.6470360124 -6.5766072742 1.1290233602
C -1.8584006615 -6.4309196328 -1.2997192887
O -2.1601426323 -5.4896946224 -2.0056882973
C -2.3380716697 -7.8419812634 -1.5456211794
H 0.7171641341 -6.9824849619 0.5669203948
H -1.8418566984 -7.5272506771 1.0685970154
H -1.5260344389 -8.5632872935 -1.4128278343
H -3.1396256609 -8.0943900292 -0.8385628410
H -2.7455228225 -7.9130902198 -2.5556905806
O -1.9805371690 0.6496640418 0.1533594577
C -2.6313793117 0.1084381073 -1.0263277964
C -4.0836114798 0.4722853450 -1.1453351644
C -4.7429069146 1.1857064901 -0.2311242039
C -4.0265258194 1.6762531231 1.0054086621
C -2.8767880078 0.7304015080 1.3018991068
H -4.5991481873 0.0656624012 -2.0105666016
H -2.5631374759 -0.9883274421 -0.9494718905
H -2.2522591806 1.0596505227 2.1319946641
H -3.2683978381 -0.2687050186 1.5256004898
H -4.7037202085 1.6868231257 1.8635694713
H -3.6592243381 2.7025562351 0.8737305229
O -0.4103735707 0.3247894860 -1.9254453222
C -1.8180027113 0.5231513539 -2.2554417052
C -2.0154347472 1.9363913603 -2.7935483744
C -1.1872792038 2.1664304295 -4.0798140953
C 0.2755153323 1.7082307828 -3.8682268159
C 0.4159328968 0.3762845650 -3.1240333559
H -1.1801632739 3.2460747831 -4.2637837677
H -3.0722872694 2.1028551350 -3.0121534161
H -1.7149494708 2.6666022658 -2.0319292838
H -2.0706306386 -0.1901256259 -3.0475046110
H 1.4360084952 0.2249866826 -2.7689658440
H 0.1269167086 -0.4608197996 -3.7644722789
H 0.8046604472 1.6065847466 -4.8243729791
H 0.8013843958 2.4942035261 -3.3134177198
C -1.8405155985 1.5289575579 -5.3290515357
O -1.7953874816 0.1295944515 -5.2807490555
O -3.1788383925 2.0021546523 -5.3633376866
C -1.1641184649 1.9678693011 -6.6709457330
O -0.7904665416 1.0799167597 -7.4190701450
C -1.0726372346 3.4291818328 -7.0153643354
H -1.4532782417 -0.1445531178 -6.1642318830
H -3.6747034828 1.4308977982 -5.9750647863
H -0.8535355277 3.5394230708 -8.0789357123
H -2.0016090301 3.9467661291 -6.7596495398
H -0.2625118845 3.9009688357 -6.4439148334
C -6.2355104644 1.4381183191 -0.3297796380
O -6.5718234044 2.7746426951 -0.0184799828
O -6.6527815482 1.0894116969 -1.6294881043
C -6.9967964945 0.5669444590 0.7284838135
O -6.3796194912 -0.2096265375 1.4301223449
C -8.4972229428 0.7291650733 0.7959900099
H -6.1909103806 3.3437106622 -0.7110404084
H -7.5955025447 1.3129045156 -1.7083077022
H -8.7657192735 1.7843976592 0.9072618052
H -8.9677222010 0.3603930413 -0.1247741026
H -8.8838247326 0.1486286785 1.6352664289
