130
# extracted from Terachem optimization
Co -0.0197954093 -0.2470300970 -0.0187646158
O 0.6607995264 1.9191030576 0.0159311526
C 2.0532362936 2.1592035692 0.1596291152
S 2.4398223480 3.3923484506 1.4793737492
C 1.3686322486 4.7837520718 0.8824774423
C -0.0140058893 4.2479997414 0.4516432176
C -0.0252854833 3.0836162436 -0.5314565795
H 1.2111564578 5.3723106100 1.7912715243
H 2.4414085749 2.5472075659 -0.7892476844
H -1.0469166341 2.7520879534 -0.7156275258
H 0.4481533308 3.3437037087 -1.4819828790
H -0.6038124930 5.0585301098 0.0137036683
H -0.5424340072 3.9393451302 1.3610557748
N 2.1067071180 -0.2702935937 0.3490375915
C 2.7392116799 0.8447060412 0.4677212827
O 4.0031599553 1.0267667649 0.8181268596
C 4.7970182002 -0.1255577731 1.2510039202
C 4.3599501448 -1.3394019328 0.4469263882
C 2.8494189609 -1.5218648659 0.5953994812
H 4.5832155583 -0.2563280791 2.3144808149
H 4.6094503728 -1.1861155029 -0.6088808035
H 4.8806003144 -2.2300996131 0.8059590524
H 2.5892515473 -1.8869948651 1.5956342954
H 2.4857095693 -2.2719447895 -0.1107422532
C 6.2795544159 0.3177393712 1.1220525693
N 6.6553268967 0.3772743126 -0.2895740938
N 6.4252497102 1.5779780200 1.8101700491
C 7.1162282216 -0.7295181583 1.9148455859
O 6.6964973667 -1.7226859425 2.4221974319
Cl 8.8837476418 -0.3551756197 1.9298074261
H 7.5520665750 0.8495972550 -0.3888129112
H 6.7602867067 -0.5469694090 -0.7080251427
H 7.4030992803 1.8480313949 1.8866044039
H 5.9190613492 2.3096278492 1.3167781864
C 2.1052115546 5.7113966143 -0.1349187762
N 3.2847117384 6.2816088006 0.5137803518
N 2.4887999675 4.9801437803 -1.3361010201
C 1.1536915576 6.9027713081 -0.4490884373
O 0.2691815531 7.2798268123 0.2522432757
Cl 1.6343635928 7.8784506470 -1.9147444658
H 3.7625926776 6.9338713839 -0.1066811569
H 3.0648057586 6.7733537966 1.3793716379
H 2.5166349661 5.6036836414 -2.1415624202
H 3.4439718013 4.6519533754 -1.1894274234
O -0.3473886715 -2.3451815227 0.1748753964
C -0.7339958957 -2.8037826027 1.4729605549
S 0.2231324262 -4.2834224905 2.0148172625
C -0.0955341186 -5.3767421411 0.5480310335
C 0.0430564575 -4.5806601580 -0.7675524548
C -0.7426485371 -3.2802565348 -0.8715404425
H 0.7496553721 -6.0706526123 0.5797097047
H -1.7952724944 -3.0752716933 1.4348803498
H -0.5151217594 -2.7654930849 -1.8074795133
H -1.8219183798 -3.4417537476 -0.7978828928
H -0.2439216162 -5.2154110023 -1.6105207132
H 1.1066059675 -4.3547898119 -0.9044509198
N -0.3897327814 -0.4564370202 2.0423089802
C -0.5498531550 -1.6637884229 2.4603050021
O -0.6172640505 -2.0789433646 3.7128581855
C -0.3851535098 -1.1175498636 4.7991240226
C -0.9235911790 0.2393116407 4.3699714996
C -0.2873907009 0.6291249965 3.0355812922
H 0.6973558684 -1.0849339190 4.9425027703
H -2.0129062680 0.1868009901 4.2611208974
H -0.6848170385 0.9873708854 5.1288947881
H 0.7712475439 0.8853605868 3.1600688191
H -0.7705912549 1.5122285144 2.6111450267
C -1.0079700530 -1.7729841249 6.0615839625
N -2.4654980520 -1.7495163328 5.9590257260
N -0.4597474898 -3.1036659321 6.1750216290
C -0.4792457186 -0.9606103490 7.2803729065
O 0.1854573003 0.0266946136 7.2283256491
Cl -1.0546228994 -1.6123040391 8.8625246639
H -2.8706857155 -2.3486281420 6.6759075733
H -2.8551729203 -0.8170592881 6.0982952823
H -0.7038688464 -3.5337779225 7.0641037363
H -0.8029142863 -3.6916271399 5.4189661911
C -1.3872435251 -6.2368448313 0.7332142963
N -1.1912015252 -7.1112843688 1.8885719609
N -2.5575178605 -5.3898178326 0.9209733912
C -1.5312789261 -7.1650244018 -0.5071837630
O -0.6431053579 -7.4935899380 -1.2285525105
Cl -3.1735961703 -7.9380640547 -0.6740597839
H -2.0037670937 -7.7078979683 2.0378301884
H -0.3708256270 -7.7098721678 1.8000422002
H -3.4023027692 -5.8820055145 0.6334658869
H -2.6434148719 -5.2299586628 1.9255729257
O -2.1120755900 0.0835200103 -0.6322305181
C -2.4088220380 0.2443534148 -2.0145368511
S -3.3307564850 1.8004725142 -2.3903125494
C -4.7132894484 1.6431617152 -1.1646694264
C -4.1779475816 1.1418926166 0.1917346665
C -3.3180446848 -0.1136132147 0.1654060822
H -5.0191976884 2.6831981000 -1.0166117288
H -3.0155001379 -0.6070015136 -2.3431556276
H -2.9466407723 -0.3423810838 1.1646452209
H -3.8569535379 -0.9738763799 -0.2400064170
H -5.0156245831 0.9651249723 0.8723369121
H -3.5887575163 1.9539569371 0.6329203474
N 0.0010913953 -0.0318635683 -2.1495867451
C -1.0934380889 0.2494969511 -2.7646777839
O -1.2539375545 0.5457905658 -4.0432921383
C -0.0662555190 0.6889437244 -4.8926083815
C 0.9739846898 -0.3189934232 -4.4287914919
C 1.2457161585 -0.1004354818 -2.9384905451
H 0.2857453240 1.7132144256 -4.7491653556
H 0.5989219997 -1.3356993853 -4.5925840759
H 1.8956682928 -0.1894782934 -4.9999570066
H 1.8080721455 0.8266259387 -2.7753953221
H 1.8529403502 -0.9146564725 -2.5329400954
C -0.5950992097 0.5744441645 -6.3499778940
N -0.9782123918 -0.8079598445 -6.6276543108
N -1.6825310056 1.5138231511 -6.4886183026
C 0.5535850797 1.0703717771 -7.2761118978
O 1.6549473324 1.3661514454 -6.9286715760
Cl 0.0966495497 1.0775355730 -9.0229867723
H -1.4980222785 -0.8527822748 -7.5022138110
H -0.1733245632 -1.4261442652 -6.7305104902
H -1.9716126768 1.6068907003 -7.4595742677
H -2.4804908747 1.2104772283 -5.9353346791
C -5.9428287734 0.8926318904 -1.7698779324
N -6.4229004455 1.6544876961 -2.9215839568
N -5.5903365822 -0.4651982046 -2.1612892379
C -7.0811014652 0.9181332315 -0.7082559737
O -7.1665300643 1.6958319431 0.1889365080
Cl -8.4550157459 -0.2258011587 -1.0611827202
H -7.2513935846 1.2208468399 -3.3268097766
H -6.6544019385 2.6199444283 -2.6899853277
H -6.4042251289 -1.0760781058 -2.1111260607
H -5.3128068504 -0.4306909156 -3.1428434933
