109
# extracted from Terachem optimization
Co 0.5737692651 -0.0052126364 -0.2102773612
N 0.8329874411 1.9206346335 -0.3659356067
C 2.0453111116 2.3431332947 -0.5937513174
C 2.0991874636 3.7648026329 -0.8770082478
C 0.8227701951 4.2197557889 -0.8308272102
C -0.0733875756 3.0627468592 -0.4967779016
H -0.6391647456 3.2094674007 0.4324915361
H -0.8084526326 2.8843246559 -1.2878509071
H 2.9835444715 4.3455334331 -1.1081524629
O 2.5857215689 0.0560347395 -0.4957322592
C 3.1844495713 1.3704049100 -0.6088969581
C 4.1955148398 1.6543041988 0.4708327097
C 4.6101997181 0.7333333207 1.3498309907
C 4.0994470134 -0.6885650441 1.2753582136
C 3.5703027413 -0.9647068013 -0.1177222154
H 4.6188240730 2.6557257179 0.5010008824
H 3.6735444277 1.4308400715 -1.5965199974
H 3.0306175740 -1.9071450120 -0.1849546106
H 4.3589927119 -0.9417149760 -0.8774232932
H 4.9008803682 -1.3945851272 1.5132559656
H 3.3060875169 -0.8540358096 2.0110138507
C 5.6277918752 1.1914639988 2.3761924299
O 6.1974187424 2.2580639438 2.2616866467
C 5.9255317799 0.2590324039 3.5579144746
O 4.6866949808 -0.0941664699 4.0780290594
O 6.5967187514 -0.8947406952 3.0736351439
H 6.5533483018 0.8052985482 4.2746035289
H 4.7582329609 -0.5493931233 4.9404726238
H 7.5513763410 -0.7966831332 3.2205911511
C 0.4278975155 5.6254007266 -1.1426489937
O 1.2707234290 6.4285605788 -1.5046444085
C -1.0672429515 6.0019558002 -1.1193372230
O -1.2339811129 7.3002298198 -1.5580890004
O -1.7527516465 5.0531536608 -1.9140252185
H -1.4805223752 5.8768625598 -0.1080213055
H -0.3503252594 7.6648167019 -1.7613856726
H -1.4797677336 5.1991905082 -2.8442788440
N 0.4650223246 -1.9505524044 -0.0765821014
C 0.3475735390 -2.6372788448 1.0265717731
C 0.2307436621 -4.0672199140 0.7659243649
C 0.2818134910 -4.2339934567 -0.5776940395
C 0.4393292405 -2.8826078428 -1.2061240784
H 1.3587173317 -2.7785526840 -1.7971908264
H -0.3825227511 -2.6373532273 -1.8852004831
H 0.1101499378 -4.8483365054 1.5060400282
O 0.5067150710 -0.5976074776 2.2611400427
C 0.2459033839 -1.9934778220 2.3852071262
C 1.0992781411 -2.6418133177 3.4469261936
C 1.6466688989 -1.9311106085 4.4443561270
C 1.4760881908 -0.4304853423 4.5297481257
C 0.4073935732 0.0625347088 3.5536013042
H 1.2239409335 -3.7211526349 3.4326770782
H -0.8143500561 -2.1299073242 2.6860025117
H 0.5213316103 1.1256810497 3.3356533526
H -0.6047028313 -0.1133733990 3.9426483507
H 1.1853396315 -0.1411491245 5.5448051079
H 2.4366337909 0.0548551897 4.3290788444
C 2.4296391086 -2.7307501992 5.4645380297
O 2.6499460635 -3.9148399287 5.2985713689
C 2.8709423500 -2.0800542505 6.7909593734
O 3.7619789613 -1.0303301675 6.4971010644
O 1.7437613413 -1.5477314755 7.4516748918
H 3.3526012525 -2.8634144301 7.3897206222
H 3.9240213449 -0.5398107895 7.3223743918
H 1.5153206239 -2.1116526583 8.2078753902
C 0.1628544499 -5.5410338520 -1.2832605780
O -0.0483781778 -6.5675178395 -0.6639311425
C 0.2239525092 -5.5555055322 -2.8223674869
O 0.0415507544 -6.8309317717 -3.3020320899
O -0.8089597034 -4.6558960699 -3.2477113401
H 1.1807526589 -5.1554131120 -3.1884231396
H -0.2183614966 -7.4012282458 -2.5497309148
H -1.4515739994 -5.2159924236 -3.7180064639
N -1.3579585090 0.1228997033 -0.2623840134
C -2.0732323657 0.0417160953 -1.3480850075
C -3.5011844968 -0.0079899334 -1.0529579406
C -3.6324076010 0.0511109553 0.2939840682
C -2.2601897124 0.1525927831 0.8869918740
H -2.1026507353 1.0774184716 1.4574268228
H -2.0360051104 -0.6693148334 1.5697629719
H -4.3034899584 -0.0929905344 -1.7756009179
O -0.0538133832 -0.0183129581 -2.6142424353
C -1.4734893762 -0.0134014237 -2.7340907571
C -1.9997412187 1.1258191847 -3.5740916900
C -1.2041666189 1.9587717487 -4.2601584684
C 0.2964725815 1.7661752485 -4.2632855268
C 0.6290283192 0.3375795063 -3.8407661351
H -3.0780652109 1.2485859940 -3.6361805709
H -1.8061174008 -0.9648922492 -3.1927618734
H 1.6889091874 0.2066912742 -3.6158564646
H 0.3439807388 -0.3787434832 -4.6214342376
H 0.7006768496 1.9543689023 -5.2628771808
H 0.7766259395 2.4957888614 -3.5996491013
C -1.9059873028 3.0575013512 -5.0248681543
O -3.1016461770 3.0151283860 -5.2345670349
C -1.0992322679 4.2541481823 -5.5594679113
O -0.4169198193 4.8205662011 -4.4578579587
O -0.1529508495 3.8233513516 -6.5104566587
H -1.8150836292 4.9606442560 -5.9972055367
H 0.1415431522 5.5429034255 -4.7983672542
H -0.4616228654 4.0524031759 -7.4021308345
C -4.9197832294 -0.0153957320 1.0394912355
O -5.9708855212 -0.2102010267 0.4573465484
C -4.8851128583 0.0804633165 2.5779717664
O -6.1478554219 -0.0725833648 3.0992385942
O -3.9895405402 -0.9526348732 3.0147103112
H -4.4572120493 1.0390894433 2.9059465081
H -6.7496709729 -0.3107259820 2.3642046611
H -4.5586768114 -1.5984360508 3.4698489092
