145
# extracted from Terachem optimization
Co 0.0205087133 0.0670897726 0.0697514528
O 0.6225667118 2.1715255339 -0.0267289228
C 1.6248308251 2.3641818979 -1.0632475945
C 2.1233491403 3.7822605344 -1.1436787769
C 1.5709237560 4.7921296748 -0.4681580158
C 0.3780088112 4.5634757233 0.4281785821
C -0.3263510633 3.2764152427 0.0347687460
H 2.9578680196 3.9541269725 -1.8175587543
H 1.1395223303 2.0984599922 -2.0125976583
H -1.0731857345 2.9772265752 0.7673553053
H -0.8053377177 3.3799736529 -0.9456887248
H -0.3347903466 5.3902956421 0.3417213161
H 0.6822315753 4.5317706337 1.4826488700
O 2.0795604803 0.0782590088 -0.5554464191
C 2.7480087439 1.3538632272 -0.8169974645
C 3.7248937316 1.6784013215 0.3053405000
C 4.7981961510 0.5764267075 0.4608833225
C 4.1113331995 -0.8037941790 0.5635944303
C 3.0221399931 -1.0382230892 -0.4834595673
H 5.3194561383 0.7700670492 1.4045025571
H 4.2158609112 2.6311915482 0.0944594888
H 3.1758224266 1.7906103665 1.2478471128
H 3.3026099390 1.2413573901 -1.7541485538
H 2.4116524945 -1.9029121608 -0.2204224267
H 3.4473916530 -1.1708054406 -1.4800015852
H 4.8382368219 -1.6208292771 0.4719970427
H 3.6663823413 -0.8944097918 1.5614822569
C 5.8787714313 0.6397910624 -0.6471682544
O 5.3622017645 0.2566721562 -1.8921355394
O 6.3443050078 1.9769064834 -0.6683142041
C 7.1114930877 -0.2874729045 -0.3522312709
O 7.4033442314 -1.1001665698 -1.2112987993
C 7.9062651767 -0.0931139696 0.9098727773
H 6.0103562954 -0.3935576164 -2.2533302845
H 6.8883078226 2.0934308538 -1.4670336411
H 8.8909646536 -0.5499532287 0.7936801300
H 8.0024874857 0.9686701003 1.1526393557
H 7.3989823201 -0.5850123038 1.7505855330
C 2.0595959568 6.2256820243 -0.6053264500
O 1.9887025171 6.9357884114 0.6029927686
O 3.3414553398 6.2221397309 -1.1575876489
C 1.0760955488 7.0440415295 -1.5636407638
O 0.1019176852 6.4988274285 -2.0259465953
C 1.4589053147 8.4752824967 -1.8621203369
H 2.6696678005 6.5891822472 1.2082884034
H 3.7024874466 7.1259974120 -1.1189212178
H 1.7853071445 8.9827530548 -0.9498508267
H 2.2848643846 8.4804403895 -2.5853007755
H 0.6077557870 8.9942232515 -2.3056710023
O -0.0953336940 -2.0078229579 0.6020474617
C -0.8677616679 -2.1515166816 1.8242915652
C -1.0182179165 -3.5790463828 2.2731485953
C -0.5401373070 -4.6200312746 1.5870779256
C 0.1937286582 -4.4140756356 0.2817117079
C -0.2440343071 -3.1039396935 -0.3491753650
H -1.5796223209 -3.7259858486 3.1913833729
H -1.8679559251 -1.7418609476 1.6193276784
H 0.3746842631 -2.8275435819 -1.2031593466
H -1.2918129257 -3.1587351953 -0.6644998254
H -0.0213044744 -5.2253731842 -0.4203213946
H 1.2807126823 -4.4225172865 0.4376200936
O 0.1139382470 0.0102937701 2.2074308952
C -0.1987265207 -1.2543921638 2.8809964837
C 1.0668406852 -1.8219201308 3.5144490678
C 1.7123404050 -0.8431231513 4.5214643594
C 1.8561109760 0.5542667795 3.8804825615
C 0.6095382470 1.0241104776 3.1357746141
H 2.7156052418 -1.2258297177 4.7372722211
H 0.8304402164 -2.7563060724 4.0289167272
H 1.7860205776 -2.0530730684 2.7184399568
H -0.9420972682 -1.0346647373 3.6530927901
H 0.8222002128 1.8905660416 2.5074443098
H -0.2013226056 1.2559060838 3.8294785681
H 2.1015640695 1.3164493588 4.6309371329
H 2.6968413941 0.5264776900 3.1783059942
C 0.9652710844 -0.8244928547 5.8809068126
O -0.3093430718 -0.2558919121 5.7564670658
O 0.8898137583 -2.1717672565 6.3060260549
C 1.7316628592 -0.0139852158 6.9871209917
O 1.1245562000 0.9006475468 7.5151295875
C 3.1201528782 -0.4307121038 7.3863538234
H -0.3711903767 0.4074882273 6.4834481363
H 0.2467343021 -2.2207871837 7.0350575103
H 3.3724984542 0.0143281936 8.3506198105
H 3.1993089350 -1.5203736112 7.4337393246
H 3.8460972063 -0.0762202465 6.6425097616
C -0.7431192341 -6.0553402423 2.0424604518
O 0.4037798986 -6.8411582425 1.8552817597
O -1.1981202342 -6.0616522119 3.3617548331
C -1.8336918722 -6.7727813882 1.1186383479
O -2.3543966855 -6.1539739154 0.2213928615
C -2.1729764609 -8.2047315857 1.4616751137
H 1.1024446554 -6.5220639794 2.4554235273
H -1.1624007846 -6.9744715946 3.6998370176
H -1.2621450330 -8.7735990131 1.6687234364
H -2.8091149468 -8.2156477655 2.3563719752
H -2.7282689595 -8.6535685833 0.6365599641
O -2.1059955893 0.5827732496 0.1267266039
C -2.8294800604 -0.2694623187 -0.8026265582
C -4.3009098119 0.0360131161 -0.8780556996
C -4.9006728493 0.9517622513 -0.1139026196
C -4.1066466249 1.7524402527 0.8920658806
C -2.8828016647 0.9549908104 1.3044509497
H -4.8748379481 -0.5738209591 -1.5697096811
H -2.7144924847 -1.3047144969 -0.4448851258
H -2.1988560269 1.5182255257 1.9386970407
H -3.1874616612 0.0454260760 1.8350511081
H -4.7023891390 1.9623055087 1.7855350214
H -3.8128055085 2.7251264759 0.4769334577
O -0.6868760183 -0.2462436003 -1.9122205903
C -2.1289014442 -0.1683937035 -2.1646705408
C -2.4230602368 1.0701196431 -3.0029777303
C -1.6976534724 1.0177299195 -4.3684956557
C -0.2030365193 0.6757108015 -4.1680368420
C 0.0614520587 -0.4407759477 -3.1558156539
H -1.7637139831 2.0211303134 -4.8023749188
H -3.4991575250 1.1530480410 -3.1714296890
H -2.1031681534 1.9629647922 -2.4511061337
H -2.4038168897 -1.0618070427 -2.7337010120
H 1.1065992926 -0.4598993795 -2.8455824950
H -0.2251068844 -1.4170740515 -3.5526196451
H 0.2694699128 0.3759373209 -5.1116832775
H 0.3144329146 1.5871140479 -3.8463587118
C -2.4061032133 0.0716744210 -5.3735390669
O -2.2878614724 -1.2703264336 -4.9874582655
O -3.7591309803 0.4737937040 -5.4133483657
C -1.8141201460 0.1945678201 -6.8281825930
O -1.3602121303 -0.8222019160 -7.3188847197
C -1.8801162315 1.5123543226 -7.5498524373
H -1.9485671927 -1.7483755678 -5.7792097349
H -4.2705827229 -0.2385998180 -5.8361896664
H -1.7409149389 1.3488163650 -8.6201461687
H -2.8316469263 2.0149378386 -7.3565091083
H -1.0756132170 2.1704893610 -7.1954170145
C -6.4033261398 1.1722557972 -0.1456127341
O -6.7556513289 2.5263972273 -0.0599233973
O -6.9377506335 0.5453666293 -1.2733895680
C -7.0645835922 0.5226144025 1.1571682572
O -6.3692196139 -0.0988986708 1.9255377731
C -8.5564238758 0.6962663377 1.3229139839
H -6.4775788013 2.9743069958 -0.8797847102
H -7.8674126619 0.8190922352 -1.3714581949
H -8.8426876866 1.7306774622 1.1144707829
H -9.0749282990 0.0388045037 0.6127256127
H -8.8459333315 0.4092224496 2.3349645136
