115
# extracted from Terachem optimization
Co 0.3208071171 -0.1524844008 -0.1212987425
O 0.6427180384 2.0330558566 -0.1859719820
C 1.9717124020 2.4187577236 0.2455641842
C 2.4873505826 3.4644345632 -0.7747873534
C 1.5364971144 3.2823403879 -1.9753752977
C 0.2309564000 2.9262739000 -1.2696520951
H -0.2533554719 3.7994987335 -0.8292579387
H -0.4857024382 2.3827824398 -1.8829806076
H 1.8605134245 2.3899193735 -2.5286054267
H 3.5353684645 3.3016969902 -1.0351538723
H 2.3907603317 4.4676834112 -0.3581057950
H 1.8917040960 2.8576507689 1.2477582083
N 2.3969229888 -0.0065670170 0.1788307729
C 2.8471786518 1.1910405018 0.3753236480
O 4.0874000932 1.5003461305 0.7137637807
C 5.0134064874 0.4598302550 1.2277665431
C 4.5754357278 -0.8891672470 0.7301536567
C 3.3352641185 -1.0704739493 0.2702948617
H 4.9391104064 0.5225345095 2.3200578022
H 2.9610670934 -2.0290072409 -0.0699060746
H 5.2903575215 -1.7015081387 0.7926965431
C 6.4141095764 0.9121521334 0.8041825461
C 7.5603884731 0.3402224880 1.6498019770
O 7.5064127088 -1.0425103034 1.5790073423
O 8.7943308842 0.8471744436 1.2730147922
Cl 7.3675925068 0.9005973314 3.3969311197
H 6.4681939575 2.0004793791 0.8808981360
H 6.6012781207 0.6349797759 -0.2406333712
H 8.2346016172 -1.4011142778 2.1195962325
H 9.0367204536 0.4317882865 0.4254503911
C 1.5098074820 4.4349656611 -3.0021286257
C 0.7289048995 5.6923870504 -2.6157662305
O -0.6274217554 5.3905300693 -2.6352009660
O 1.1768060754 6.1645157086 -1.3909347785
Cl 1.0448405279 7.0001834132 -3.8985405332
H 2.5392199867 4.7317085171 -3.2180717574
H 1.0728133547 4.0801751816 -3.9391600065
H -1.1453596058 6.2130481982 -2.5887004805
H 0.8923350555 7.0865203127 -1.2645175657
O 0.1683282944 -2.1891115182 0.6517839290
C 0.3360908102 -2.3024682121 2.0876260888
C -0.5685370556 -3.4665169154 2.5377089535
C -1.5943554187 -3.5748333112 1.3910610409
C -0.7233014467 -3.2501246652 0.1788209545
H -0.1122308390 -4.0985829287 -0.1322473777
H -1.2611890074 -2.8499415559 -0.6811052141
H -2.3130618658 -2.7505797668 1.5076643383
H -1.0313983990 -3.2741539665 3.5076513408
H 0.0163201383 -4.3840968184 2.6144017608
H 1.3928105612 -2.5110386231 2.2955578873
N -0.1508305397 0.0957324054 1.9722190948
C 0.0126028772 -0.9569083692 2.7071576344
O -0.0337957780 -1.0080545867 4.0259796418
C -0.1843756869 0.2140222583 4.8600239743
C -0.4955895002 1.3929436481 3.9841569726
C -0.4618601220 1.3049531668 2.6527227470
H 0.7828913111 0.3287167307 5.3611190099
H -0.6825659119 2.1432054312 2.0041786756
H -0.7494186619 2.3200999440 4.4848485635
C -1.2516462733 -0.1249980495 5.9088269279
C -1.1688770948 0.6926371898 7.2047527987
O -1.2396319221 2.0370240148 6.8782043136
O -2.1363224426 0.3115602039 8.1235741982
Cl 0.4232045572 0.3208346642 8.0558715574
H -1.1513086385 -1.1771424635 6.1852393935
H -2.2530793415 0.0223892142 5.4852772142
H -1.1724725844 2.5524472800 7.7033761560
H -2.9883888687 0.6719120862 7.8176231957
C -2.4415388357 -4.8656484142 1.3464794731
C -1.7572744537 -6.1316339206 0.8289952802
O -1.5358274614 -5.9870728156 -0.5357246729
O -0.6042573040 -6.3717950410 1.5608314151
Cl -2.9132047964 -7.5667910328 1.0727773764
H -2.8121275907 -5.0718531441 2.3537385722
H -3.3145794702 -4.7062108730 0.7081823805
H -1.3003560215 -6.8488571069 -0.9216164266
H -0.3142016793 -7.2919463694 1.4336879828
O -1.7528913881 0.1067265280 -0.8193905770
C -2.0371388525 -0.0424021097 -2.2199999810
C -3.2062255423 -1.0450689226 -2.3101620521
C -3.8577408676 -0.9853014400 -0.8909042279
C -3.0475247138 0.1019394172 -0.1555524798
H -3.4956145179 1.0917605369 -0.2579844021
H -2.8563984767 -0.1053044902 0.8979177339
H -3.6518104315 -1.9424145016 -0.3986069967
H -2.8464203093 -2.0541705214 -2.5313740163
H -3.8978007435 -0.7499734281 -3.0982606497
H -2.3637201680 0.9293157086 -2.6168232925
N 0.3532284626 -0.5002081896 -2.2442941932
C -0.7547709241 -0.4160479693 -2.9104125663
O -0.9103564737 -0.5974107910 -4.2087085959
C 0.2584195882 -0.7208231379 -5.1201664635
C 1.5046011506 -0.9652234514 -4.3182644406
C 1.5140657013 -0.8442691769 -2.9895000212
H 0.3049177520 0.2389676378 -5.6469055159
H 2.4049307060 -1.0059770668 -2.3966720430
H 2.3984554942 -1.2310125225 -4.8699633047
C -0.1068333140 -1.8186843541 -6.1273609587
C 0.6639984029 -1.7585590698 -7.4533805330
O 2.0200002000 -1.8232476264 -7.1753395358
O 0.2540866091 -2.7410488262 -8.3428000572
Cl 0.2617051801 -0.1816747629 -8.3203295487
H -1.1695340190 -1.7374785815 -6.3672276583
H 0.0676102971 -2.8068365325 -5.6837539919
H 2.5035189513 -1.7701751442 -8.0206478740
H 0.6251728965 -3.5880130544 -8.0354350490
C -5.3966978743 -0.8422375954 -0.8695345060
C -5.9725359766 0.5375338059 -1.1891687587
O -5.7574242571 1.3714300361 -0.0983360308
O -5.4175808939 1.0152897602 -2.3707936876
Cl -7.8065203047 0.3736106689 -1.4297787509
H -5.8152175909 -1.5581584806 -1.5810064695
H -5.7787629853 -1.1102507800 0.1190913856
H -6.3207552337 2.1615574035 -0.1717570932
H -5.9488511397 1.7579615033 -2.7071320744
