136
# extracted from Terachem optimization
Mn 0.2939991825 0.3190721251 -0.0241079590
O 0.8758803811 2.2836237867 0.0415041553
C 2.0751439763 2.5575048721 0.8244787705
C 2.3851560158 3.9858501140 0.4967600878
C 1.5247901093 4.4932014090 -0.3985275781
C 0.4912596231 3.4523191468 -0.7583264268
H -0.5269408382 3.7253061240 -0.4772695674
H 0.5045007696 3.1604847162 -1.8119548560
H 3.2034893550 4.5168781498 0.9671878193
H 1.8220654173 2.3971731157 1.8802648274
O 2.4638947631 0.2812909527 0.1413298745
C 3.1524971571 1.5473771390 0.4035966337
S 4.4055269336 1.3828187212 1.6952722787
C 5.4863758136 0.1812416597 0.7539812939
C 4.6260710154 -0.8356343919 0.0598412375
C 3.3110802392 -0.7870203144 -0.1595215484
H 6.0099239983 -0.3256496578 1.5712736305
H 2.7481076435 -1.5982975625 -0.6036152504
H 5.1327078901 -1.7348452418 -0.2825455152
H 3.6214123545 1.8384336803 -0.5428893374
C 6.5003391376 0.8878187616 -0.1235203688
C 6.3267713901 1.0623075225 -1.4373726299
C 7.7709851959 1.3490679773 0.6041874058
O 7.4663997443 1.7829386865 1.9265017605
C 8.7641653066 0.1938662838 0.7648402501
O 8.3163804661 2.4048013056 -0.1494955796
H 7.0644706416 1.5926229082 -2.0281901506
H 5.4584404233 0.6670448997 -1.9578110924
H 7.0464417252 2.6560298613 1.8394547046
H 9.0887352192 -0.1618347348 -0.2160576696
H 9.6320791364 0.5418479719 1.3357781557
H 8.3248529181 -0.6407705787 1.3195031057
H 9.2133319436 2.5753880216 0.1848518419
C 1.5532942693 5.8510180838 -0.9803558093
C 2.7146189941 6.4350870465 -1.3046591866
C 0.2047486439 6.5472637734 -1.1950138254
O -0.6458346580 5.7005268384 -1.9846891848
C -0.5364505297 6.8058375756 0.1172412303
O 0.4577811306 7.7388088392 -1.8891478702
H 2.7394092900 7.4429839952 -1.7013014034
H 3.6613042493 5.9141229591 -1.1944237810
H -0.3119705249 5.7792756820 -2.8960405715
H 0.0453781464 7.4894768606 0.7406730224
H -1.5143648241 7.2506004509 -0.0969300852
H -0.7054307725 5.8822626708 0.6794024413
H -0.3550692452 8.2714385659 -1.8868249057
O 0.2350387905 -1.7131087168 0.1264042596
C 0.6372483130 -2.1938210443 1.4537880760
C 0.2011815194 -3.6264251753 1.4453834645
C -0.4224272300 -3.9595526776 0.3053826843
C -0.4591547893 -2.7678343068 -0.6228857724
H 0.0755493750 -2.9135688503 -1.5622389338
H -1.4724631961 -2.4224005992 -0.8482345182
H 0.4125528375 -4.2923162674 2.2727194560
H 1.7241759916 -2.0667828259 1.5203860925
O 0.1257733405 0.0741184281 2.0855924951
C -0.0270375484 -1.3160167138 2.5163734911
S 0.7299718664 -1.5965699671 4.1348854740
C -0.4175298268 -0.4471819633 5.0683446143
C -0.6736790982 0.7953687205 4.2615726181
C -0.4031011283 1.0146915006 2.9743127609
H 0.2086422860 -0.1688982162 5.9228526518
H -0.5644580630 1.9648645983 2.4788678270
H -1.1123264923 1.6293549778 4.8040552151
H -1.1041016692 -1.5077384456 2.5763418565
C -1.6547190115 -1.1629420575 5.5720810650
C -2.8451966671 -1.0742343678 4.9699541220
C -1.4553372399 -1.9702492451 6.8644127780
O -0.1534494560 -2.5454675725 6.9083480234
C -1.5531905667 -1.0716836139 8.1006294623
O -2.4406255349 -2.9765362363 6.8694405506
H -3.6955130673 -1.6214547507 5.3612212394
H -3.0175465645 -0.4535734907 4.0957958432
H -0.1568996991 -3.2815802217 6.2728515030
H -2.5479019470 -0.6239397137 8.1629410434
H -1.3623686825 -1.6700873602 8.9983386294
H -0.8034228765 -0.2751258947 8.0775201038
H -2.4427201986 -3.3791232755 7.7546459229
C -1.0131484323 -5.2727642845 -0.0281807470
C -1.6605393630 -5.9896734886 0.9002344830
C -0.8474897965 -5.7689195197 -1.4695825799
O -1.3470310019 -4.7694467573 -2.3752487891
C 0.6176833326 -5.9991915736 -1.8414160497
O -1.6059177418 -6.9393897259 -1.5976820230
H -2.0635295415 -6.9681190700 0.6675857768
H -1.8096581973 -5.6095029705 1.9067553087
H -2.3161388537 -4.8571085678 -2.3427694312
H 1.0398340194 -6.7880408726 -1.2136020762
H 0.6860861163 -6.2957598713 -2.8937920733
H 1.2168444327 -5.0932908180 -1.7098647413
H -1.3615340438 -7.3754718097 -2.4310753242
O -1.7104616808 0.6718918555 -0.2433639452
C -2.1275297492 1.0762944961 -1.5841232451
C -3.5863946903 0.7334777499 -1.6154906887
C -4.0004889352 0.1950760334 -0.4594376428
C -2.8486627614 0.1383791720 0.5151398663
H -2.9829981529 0.7608940885 1.4005910223
H -2.6077306279 -0.8761801555 0.8436684977
H -4.2074213705 0.9484665448 -2.4762098163
H -1.9456685573 2.1548235959 -1.6714302872
O 0.1102791010 0.3614888170 -2.1359030197
C -1.2719471350 0.3429517886 -2.6244647273
S -1.4274143560 1.1526751974 -4.2347646022
C -0.3379768918 -0.0634325269 -5.1511129747
C 0.8848750685 -0.3552051350 -4.3281592172
C 1.0679777286 -0.1341675848 -3.0263938449
H -0.0292270361 0.5335484842 -6.0154671591
H 2.0105294851 -0.2916405749 -2.5170927586
H 1.7361247284 -0.7672857856 -4.8645895424
H -1.5535647479 -0.7118664251 -2.7123680255
C -1.1087222749 -1.2764095117 -5.6329079085
C -1.0884197366 -2.4495514404 -4.9913723111
C -1.8857051556 -1.0761872595 -6.9428645940
O -2.4213499061 0.2402813000 -7.0195694705
C -0.9681871782 -1.2212186415 -8.1607154486
O -2.9176836322 -2.0341860048 -6.9506108853
H -1.6692764347 -3.2888439952 -5.3555485914
H -0.4834349860 -2.6166278439 -4.1058566887
H -3.1610178182 0.2756051901 -6.3892484790
H -0.5500448084 -2.2299217891 -8.1995299496
H -1.5453049553 -1.0279166287 -9.0716789105
H -0.1496893194 -0.4955134116 -8.1367893954
H -3.3091301781 -2.0350400972 -7.8407767795
C -5.3594520914 -0.2937727380 -0.1441050239
C -6.0966408020 -0.9219144920 -1.0699821753
C -5.8765551020 -0.0530740741 1.2789647138
O -4.9209398166 -0.5757469170 2.2202349361
C -6.0362753613 1.4333151324 1.5985795468
O -7.0856629274 -0.7478858102 1.4076425800
H -7.1045197801 -1.2524467132 -0.8491010448
H -5.7052146729 -1.1272298753 -2.0622132253
H -5.0702719091 -1.5377554422 2.2265469205
H -6.7879544596 1.8747822853 0.9393097060
H -6.3508268622 1.5518949677 2.6412816394
H -5.0969133657 1.9784349778 1.4688504215
H -7.5295451771 -0.4455888528 2.2175986510
