124
# extracted from Terachem optimization
Mn -0.1149645625 0.0637219205 0.0021003430
O -0.1777509861 2.1813537953 0.4767830354
C 1.0281354441 2.7933915695 1.0339658171
S 0.8454658335 4.6190195055 0.8323539715
C -0.9189803983 4.3718448805 0.7071851994
C -1.2536305459 3.0989615415 0.5164211987
H -2.2242895614 2.6519261473 0.3583021051
H 1.0514675662 2.5271719790 2.0973520789
O 1.9838630705 0.7610893320 0.2710099429
C 2.2215668691 2.2217060101 0.2915744064
C 3.5522410536 2.5564339751 0.9554818048
C 4.7412712794 1.8329878202 0.2946777759
C 4.3715444034 0.3953653407 0.0598937553
C 3.1164291317 -0.0467169482 0.0625100882
H 5.5779027760 1.8640794036 1.0000113068
H 3.6925921606 3.6427353957 0.9100979255
H 3.5062298725 2.2806774355 2.0165317365
H 2.8111980632 -1.0776039780 -0.0616286513
H 5.1562925340 -0.3339820630 -0.1184659451
H 2.2299372228 2.5479330159 -0.7506579366
C 5.2522333879 2.5317382635 -1.0077104660
N 4.2801073732 2.3705307912 -2.0933485817
C 6.6754553090 2.0944671293 -1.3283116156
C 7.0881745457 1.5449942251 -2.4748062674
O 7.4839819970 2.3631185491 -0.2570355219
H 5.3048520070 3.6039889737 -0.7764710229
H 4.5070972634 3.0133505419 -2.8509317898
H 4.3692398268 1.4314212360 -2.4804981390
H 8.1271350699 1.2724506341 -2.6372452423
H 6.4101857836 1.3820181006 -3.3027590560
H 8.4063269257 2.1525868372 -0.4789764994
C -1.8131355614 5.5856779921 0.8145977947
N -1.0877436543 6.7189850123 0.2478676806
C -2.1787251087 5.8383382709 2.2698350141
C -1.6654260383 6.8018162604 3.0369638242
O -3.1194744593 4.9210544667 2.6632769168
H -2.7603638699 5.3491721596 0.3012095821
H -1.5804628913 7.5868301973 0.4483395050
H -1.0226622092 6.6315457705 -0.7641366483
H -1.9914181537 6.9492852476 4.0631193045
H -0.8991373065 7.4646543612 2.6569375599
H -3.3800540888 5.1117059264 3.5795312564
O 0.5098513861 -2.1017502261 0.1519134171
C 0.1328983517 -2.7668069957 1.3933996410
S -1.4378868718 -3.6579196197 1.0161372033
C -0.8463929244 -3.8202581534 -0.6643163536
C 0.1426173776 -2.9628746713 -0.9208052211
H 0.6657099124 -2.7797055546 -1.8485402244
H 0.9081790799 -3.5148127697 1.5957384167
O -0.6385095667 -0.5805764767 2.0950598231
C 0.0594025836 -1.7865794532 2.5566250602
C 1.4141525356 -1.4127742437 3.1581118524
C 1.2387318863 -0.4824267454 4.3773603482
C 0.0975067915 0.4713162349 4.1419650000
C -0.7249091646 0.4095770764 3.0962227726
H 2.1531738545 0.1102297901 4.4918761978
H 1.9215585509 -2.3367875136 3.4574864713
H 2.0415200116 -0.9300516912 2.4003120921
H -1.5418488646 1.0923451282 2.8960665488
H -0.0830395056 1.2565340470 4.8713797571
H -0.5467263522 -2.2247106880 3.3577172515
C 1.0817434868 -1.2677181374 5.7197437761
N -0.1377456977 -2.0739319066 5.6970491298
C 1.2492692622 -0.3366692326 6.9134873290
C 0.3863879046 -0.1980535400 7.9237971891
O 2.4381308361 0.3389575720 6.8049850105
H 1.9290930174 -1.9659753516 5.7512220892
H -0.1076191458 -2.7749987729 6.4353273828
H -0.9479712154 -1.4867387480 5.8930435542
H 0.5801333123 0.4733160962 8.7558168484
H -0.5254841883 -0.7793749643 7.9727641644
H 2.5893764844 0.8601879916 7.6111190343
C -1.4746072488 -4.8186671516 -1.6301317413
N -2.7509294069 -5.2845783704 -1.0878256731
C -0.4758185231 -5.9097933911 -2.0132957297
C -0.6222452767 -7.2150599466 -1.7816129191
O 0.6008199586 -5.3514308464 -2.6618886493
H -1.7007677983 -4.2655097960 -2.5506415833
H -3.2784412693 -5.7555439294 -1.8208209830
H -2.5924510300 -5.9773161189 -0.3565015195
H 0.1204432545 -7.9399468706 -2.1034523949
H -1.4946074771 -7.6120513209 -1.2794348983
H 1.2389401791 -6.0542207522 -2.8709253802
O -2.1367703128 -0.2303959941 -0.6942277667
C -2.4461593141 -0.0830297957 -2.1196702508
S -3.8571675919 -1.2154669833 -2.4892649767
C -4.1995772334 -1.3060528584 -0.7408644468
C -3.2399199866 -0.7740625055 0.0052952676
H -3.1163096950 -0.7498208761 1.0760935505
H -2.7311075283 0.9645000096 -2.2697094431
O -0.0858934385 0.2158194415 -2.2352572667
C -1.2087232685 -0.4505531282 -2.9228213524
C -1.3127881964 -0.0309766613 -4.3843394356
C 0.0098617462 -0.2303296175 -5.1471736344
C 1.1179251873 0.3752863815 -4.3308766092
C 1.0243724773 0.5701244480 -3.0173377546
H -0.0731682711 0.3204118738 -6.0894788691
H -2.1191932432 -0.6110098455 -4.8481817762
H -1.5994680038 1.0262783245 -4.4417432513
H 1.7856714615 1.0435108879 -2.4106596190
H 2.0339157479 0.6942755456 -4.8189140435
H -1.0110787227 -1.5206877320 -2.8565656678
C 0.2993828434 -1.7174159913 -5.5383719117
N 0.6849248186 -2.4971606252 -4.3589700014
C 1.2711501740 -1.7790286739 -6.7096116846
C 2.4670824257 -2.3763525781 -6.7064571695
O 0.7240100456 -1.1322853944 -7.7837972603
H -0.6488952644 -2.1304142809 -5.9076746089
H 0.6972614381 -3.4919044793 -4.5789103898
H 1.6384031235 -2.2487982226 -4.0962354520
H 3.1031902632 -2.3917039107 -7.5869755522
H 2.8365039074 -2.8969655265 -5.8323428502
H 1.3169806054 -1.2039066735 -8.5504045202
C -5.4634058466 -2.0008233487 -0.2967509279
N -5.6315523676 -3.1712953972 -1.1474433239
C -6.6495088407 -1.0462004422 -0.3932214648
C -7.5386824962 -1.0310217798 -1.3846339745
O -6.6736745946 -0.0856405773 0.5976374289
H -5.3313165448 -2.2439332751 0.7773296896
H -6.5245583090 -3.6219314015 -0.9598470492
H -4.8798750272 -3.8415174783 -0.9804710307
H -8.3538689916 -0.3162305248 -1.3769058820
H -7.4480780018 -1.7130691565 -2.2208136325
H -6.5938112928 -0.5143272985 1.4663063847
