124
# extracted from Terachem optimization
Mn -0.0365638447 0.0535554270 0.1145609184
O 0.1637032874 2.0829608254 0.3934026123
C 1.5528296316 2.4808960864 0.6288368218
S 1.8545327258 4.2337470082 0.2301691625
C 0.6851328493 4.9199618994 1.4938594728
C -0.5595979059 4.0824602195 1.5905659098
C -0.7765437195 2.8734331581 1.0788000982
H 1.1934062957 4.9430675697 2.4662120396
H -1.7217225528 2.3539617541 1.1616457674
H -1.3767608303 4.5429353870 2.1373336721
H 1.7658557403 2.2715564419 1.6821596307
O 1.9677689659 0.2326948577 -0.2148755049
C 2.4498250934 1.6283916745 -0.2641467277
N 3.7894059401 1.6420065666 0.2189222110
C 4.7772149795 0.9241159141 -0.6007911231
C 4.1120333644 -0.3038700674 -1.1580245212
C 2.8405434134 -0.6196640669 -0.9236127050
H 5.5574792764 0.5760654034 0.0924775147
H 4.0917947200 2.5556029591 0.5433107243
H 2.3421142383 -1.5225948335 -1.2543228475
H 4.7173228466 -0.9659686365 -1.7654298028
H 2.3212863871 1.9042664048 -1.3206621263
C 5.5088303445 1.8264828575 -1.6624294698
N 4.7191493544 2.3955255125 -2.7394842326
C 6.6417821152 1.0186614153 -2.3266201908
O 6.3866557228 0.0097588365 -2.9755868451
N 7.9041590205 1.4730730946 -2.1239640504
H 5.9371469217 2.6632705946 -1.0936286794
H 4.3272233660 1.6742657847 -3.3385690587
H 3.9923679157 3.0281720650 -2.4201687277
H 8.0854394383 2.4007814015 -1.7687516518
H 8.6504557811 1.0185761014 -2.6367255874
C 0.3990830988 6.3874165487 1.0499399864
N 1.6262282988 6.9726273846 0.5280740038
C -0.3081377154 7.1475867890 2.2050291811
O -1.0509668795 6.5669693746 2.9873982954
N -0.0580620238 8.4777836462 2.2702028530
H -0.3149143272 6.3413773561 0.2186851179
H 2.2364321905 7.3540118762 1.2457195232
H 1.4773610136 7.6599014279 -0.2027989262
H 0.5200675620 8.9581731319 1.5983845444
H -0.5456115444 9.0236994685 2.9689405144
O 0.0056241498 -2.0777017481 0.0630275039
C 0.8290547679 -2.6427324499 1.1319973852
S 0.5518384849 -4.4165349749 1.4336587586
C 1.0578115260 -4.9721751400 -0.2584772395
C 0.4769715933 -4.0551110465 -1.2994159441
C -0.0112131941 -2.8286940961 -1.1253805578
H 2.1537640249 -4.9720441174 -0.3138035139
H -0.4810998207 -2.2622907691 -1.9159946447
H 0.4278582013 -4.4683512390 -2.3020786108
H 1.8702478628 -2.4501158433 0.8585849199
O 0.2000267292 -0.4908857406 2.0602625227
C 0.4796458538 -1.8936033612 2.4141565428
N 1.5696469511 -1.9192191947 3.3324153931
C 1.3092808980 -1.3089423362 4.6461448296
C 0.4781721846 -0.0778697139 4.4144701436
C 0.0373176153 0.2993184730 3.2169059383
H 2.2834938678 -0.9682328793 5.0268473069
H 2.0336763946 -2.8221501850 3.3718442346
H -0.5082230472 1.2096493629 3.0084532116
H 0.2466817710 0.5448944686 5.2692926829
H -0.4829212418 -2.2403357918 2.8162164736
C 0.7538213774 -2.3157588080 5.7267477792
N -0.5000487511 -2.9914753587 5.4532209102
C 0.5625213739 -1.5756983380 7.0646130248
O -0.2809397571 -0.6903743526 7.1549393575
N 1.3844837824 -1.9341780286 8.0827952124
H 1.5270971644 -3.0897795242 5.8299184094
H -1.2824272947 -2.3432192586 5.4377567866
H -0.4828837529 -3.5604790334 4.6135108410
H 1.9174736210 -2.7917318952 8.0584466811
H 1.2013556247 -1.5289792582 8.9932286787
C 0.5531506676 -6.4406909385 -0.3927487129
N 0.7324610109 -7.1227826686 0.8811054997
C 1.1983642190 -7.0925644197 -1.6459166313
O 1.4384680784 -6.4324964091 -2.6501265920
N 1.4568564397 -8.4195949739 -1.5519471557
H -0.5261884213 -6.3967395248 -0.5824773782
H 1.6756050362 -7.4707354190 1.0306800312
H 0.0585831637 -7.8613493214 1.0527483225
H 1.2011351934 -8.9689544612 -0.7462702238
H 1.8114919698 -8.8968619081 -2.3707741886
O -2.2307217870 0.0335261102 0.1680198717
C -2.8740390584 0.7170499631 -0.9467100413
S -4.6072856971 0.2271214688 -1.2218883960
C -5.2215976560 0.7826117205 0.4325230723
C -4.2447314729 0.3932377250 1.5077107117
C -2.9733883952 0.0263654575 1.3596835694
H -5.3568960196 1.8707533149 0.4112149284
H -2.3574918236 -0.3177720882 2.1776675952
H -4.6433537193 0.3846340741 2.5172251274
H -2.7980058023 1.7895229742 -0.7417372616
O -0.6562588673 0.3201725180 -1.8537267959
C -2.0864215731 0.3675791094 -2.2037042441
N -2.2739027151 1.3524482609 -3.2158003235
C -1.6521892335 1.0500531862 -4.5142619298
C -0.3265199683 0.3970331168 -4.2365491710
C 0.1237585205 0.1354972500 -3.0116645005
H -1.4334075611 2.0194789598 -4.9861957532
H -3.2305158824 1.6898361202 -3.2718726558
H 1.1030605066 -0.2585052362 -2.7790401728
H 0.3102787013 0.1608792428 -5.0798163443
H -2.2995796562 -0.6656632724 -2.5137731362
C -2.5937498821 0.2850344004 -5.5213234407
N -3.1175422256 -1.0079395342 -5.1252613118
C -1.8352358267 0.0593181175 -6.8430545559
O -0.9168055916 -0.7511849230 -6.8869672775
N -2.2061798229 0.8293815241 -7.8979283839
H -3.4507957095 0.9531421743 -5.6846913806
H -2.3799617989 -1.7039843964 -5.0635814061
H -3.6700307487 -0.9844287293 -4.2744500025
H -3.0868411878 1.3237286036 -7.9105531888
H -1.7763473562 0.6284073007 -8.7932118517
C -6.6143646540 0.1110285208 0.6203212227
N -7.3181403258 0.0855585042 -0.6553849176
C -7.3487805026 0.7894071224 1.8077559992
O -6.7283452264 1.3350731622 2.7122867463
N -8.7021396970 0.7190633638 1.7744925753
H -6.4369086599 -0.9325142416 0.9085216473
H -7.8305757915 0.9398839275 -0.8564820971
H -7.9274490203 -0.7168216065 -0.7720774619
H -9.2077704418 0.2476255248 1.0405947371
H -9.2219919964 1.0964528941 2.5561930562
