97
# extracted from Terachem optimization
Mn -0.0689758161 0.1383423652 -0.1004096887
O 0.1703436805 2.2148178300 -0.1193530433
C 1.3837171240 2.5386899808 0.6450728153
S 1.6740497263 4.3342747445 0.4494245308
C 0.7108174036 4.2637219894 -1.0561039226
C 0.0113979537 3.1305473802 -1.1783816249
H -0.6668460485 2.8247140304 -1.9572240408
H 1.1880321885 2.2844626712 1.6863832554
O 1.9738868091 0.2878873409 0.1242198578
C 2.5112867545 1.6617514946 0.0998465554
N 3.6583738746 1.7105965575 0.9565759433
C 4.7769324864 0.8940171414 0.4738371185
C 4.2568571045 -0.4383213681 0.0081493513
C 2.9566981693 -0.6883306015 -0.1234013791
H 5.4648758351 0.7173645456 1.3095003651
H 3.9537775173 2.6811429814 1.0583709570
H 2.5168888723 -1.6310387625 -0.4244838794
H 4.9756456063 -1.2173293054 -0.2154526163
H 2.7118028446 1.8840262652 -0.9572248011
C 5.5840195522 1.6021957409 -0.6541990413
O 5.1342771993 2.5905923934 -1.1950225858
C 6.9520068512 1.0462692993 -1.0205450144
O 7.1776287575 -0.1522403066 -0.3013015537
H 6.9780355735 0.9016409553 -2.1112881871
H 7.6877740894 1.8291296153 -0.7799881504
H 8.1033455410 -0.4188635601 -0.4106671461
C 0.7580457080 5.5033365114 -1.8772038794
O 1.4386311210 6.4257870684 -1.4677064693
C -0.0157387359 5.6450503879 -3.1791748797
O -0.7660995483 4.4771186426 -3.4721651946
H -0.6544867620 6.5330503908 -3.0681795011
H 0.7249839602 5.8693497347 -3.9606395214
H -1.2569736922 4.6352370729 -4.2926809242
O -0.0193867089 -1.9779202432 0.1650590765
C 0.4394163804 -2.2547094193 1.5412460155
S 0.2620525272 -4.0561003818 1.8155842680
C -0.9468758500 -4.0795327711 0.5009220317
C -0.9285395095 -2.9706719889 -0.2417245543
H -1.4965835887 -2.7503873449 -1.1285713353
H 1.4833645871 -1.9509908048 1.6068756061
O -0.3119668003 -0.0262875983 1.9643918909
C -0.4146388026 -1.4063717409 2.4792322734
N 0.0905389572 -1.4280077144 3.8210987617
C -0.7316133281 -0.6542661371 4.7565338147
C -1.0800614120 0.6703049879 4.1285453626
C -0.8571443115 0.9262999150 2.8416233836
H -0.1430852028 -0.4611701783 5.6605425273
H 0.1755090944 -2.3945015019 4.1327183304
H -1.0614831570 1.8638869067 2.3393017900
H -1.5195929149 1.4350493892 4.7576030413
H -1.4690615535 -1.6858362155 2.3941844396
C -2.0369062546 -1.3831481977 5.1818705540
O -2.4710980929 -2.3091746387 4.5219396873
C -2.7357936320 -0.9331382677 6.4532710002
O -2.1783583449 0.2878907133 6.8951584425
H -3.8133406253 -0.8620566165 6.2420615387
H -2.6038190654 -1.7476784777 7.1845084397
H -2.5096991993 0.4886452906 7.7840061517
C -1.7378415549 -5.3285252369 0.3595021344
O -1.4844575934 -6.2571295401 1.1040863138
C -2.8055488761 -5.4775474312 -0.7179146003
O -3.2354787791 -4.2132990339 -1.2061706365
H -2.3668662313 -6.0954024445 -1.5173211176
H -3.6238141666 -6.0529508985 -0.2675499920
H -3.9242930191 -4.3586426937 -1.8743092565
O -2.1618275076 0.1562832047 -0.3817875906
C -2.5666161214 0.3430409883 -1.7839347624
S -4.2041481843 -0.4885671634 -2.0241027721
C -4.1065425994 -1.1166003632 -0.3623066074
C -3.0541863879 -0.6622722837 0.3166913935
H -2.8150656218 -0.8430465092 1.3472778923
H -2.6490333315 1.4191711964 -1.9460490370
O -0.1818561451 0.1011386454 -2.1583550973
C -1.4998215824 -0.2354161163 -2.7225794242
N -1.6104278594 0.3982461599 -4.0062242819
C -0.6726898056 -0.1317329986 -5.0011855631
C 0.6853309079 -0.2629538256 -4.3700378967
C 0.8764131001 -0.1195304096 -3.0624059491
H -0.5963735009 0.5912347797 -5.8221414113
H -2.5662297979 0.3075936759 -4.3491879036
H 1.8282269994 -0.1517077677 -2.5501456548
H 1.5315856004 -0.4552007613 -5.0182980187
H -1.5362537424 -1.3313967316 -2.7500579255
C -1.1557518188 -1.4790220145 -5.6107092990
O -2.0860997358 -2.0748919017 -5.1075268485
C -0.4602515602 -2.0008626659 -6.8582150748
O 0.5653210661 -1.1009321592 -7.2336975436
H -0.0811413728 -3.0103388531 -6.6343171765
H -1.2340521838 -2.1108664327 -7.6330839628
H 0.9254674098 -1.3710582142 -8.0924118969
C -5.1328906864 -2.1068480811 0.0523294953
O -5.9854439204 -2.4329656293 -0.7537948804
C -5.1290733126 -2.6783878699 1.4676677108
O -3.8166712717 -2.6966007234 2.0098174519
H -5.8114963645 -2.0530298353 2.0659296686
H -5.5704824356 -3.6802255727 1.4017427888
H -3.8485259740 -2.8844526758 2.9632796042
