184
# extracted from Terachem optimization
Fe 1.1098803709 0.6602331535 0.5826244786
O 1.3495222734 2.7979086104 0.5938257437
C 2.6497626728 3.1602787362 1.1529028743
C 2.7951269513 4.6098909632 0.8126071057
C 1.8099840492 5.0285333482 -0.0011701957
C 0.8672999041 3.8769620808 -0.2702246992
H -0.1642259489 4.0948641237 0.0241844836
H 0.8813810122 3.5245802809 -1.3080410158
H 3.6231036590 5.1969020032 1.1878605496
H 2.5968960348 2.9517769247 2.2288898016
O 3.2374069670 0.8966688856 0.5081641830
C 3.7433004743 2.2775307219 0.5287966369
S 5.2585029333 2.4051613486 1.5070023237
C 6.2994042194 1.2699462094 0.4375156349
C 5.4795426778 0.0778191184 0.0271431454
C 4.1572876560 -0.0772726258 0.0993183834
H 7.0423428507 0.9133021231 1.1609027051
H 3.6481768409 -1.0037647294 -0.1376317165
H 6.0380202576 -0.7790412292 -0.3428248849
H 3.9260384678 2.5464700603 -0.5164976645
C 7.0300252592 1.9797010516 -0.6848459126
C 8.2360178666 2.6403998481 -0.4021267139
C 8.9379910617 3.3030843944 -1.3994542864
C 8.4678884560 3.3280963792 -2.7289060864
C 9.2260382993 4.0173385500 -3.7921722580
C 9.9783372623 5.1773734211 -3.5102226188
C 10.6962535861 5.8299238213 -4.5024605249
C 10.6789690745 5.3220991941 -5.8085223090
Cl 11.5767284168 6.1280472639 -7.0554277820
C 9.9449142420 4.1690004809 -6.1182424846
C 9.2260712949 3.5315725483 -5.1169074336
C 7.2592071160 2.6618758287 -3.0049907049
C 6.5535883437 2.0006018549 -2.0029302554
H 8.6376788769 2.6252639258 0.6083058917
H 9.8856634056 3.7720463845 -1.1552907803
H 9.9775916979 5.5916660425 -2.5069456116
H 11.2632340174 6.7268503361 -4.2785364721
H 9.9547826239 3.7782114317 -7.1298160540
H 8.6876160117 2.6202371817 -5.3576977112
H 6.8577233960 2.6775660032 -4.0134244204
H 5.6337494733 1.4809693305 -2.2584317616
C 1.5874686495 6.3569325234 -0.5749928102
C 0.5424429832 6.5845305719 -1.4901876729
C 0.3245302500 7.8443031247 -2.0336096868
C 1.1364660254 8.9409718523 -1.6838697701
C 0.9015848706 10.2825582882 -2.2494836335
C 0.3787950867 10.4426353920 -3.5505410110
C 0.1619983486 11.7025722555 -4.0896051207
C 0.4589623794 12.8379562306 -3.3231877478
Cl 0.1854742390 14.4165906171 -3.9874240167
C 0.9738611129 12.7108204470 -2.0260238258
C 1.1940588532 11.4444923149 -1.5034537001
C 2.1839818111 8.7077042052 -0.7660652608
C 2.4053861813 7.4510003863 -0.2277930565
H -0.1187741571 5.7738725845 -1.7858670452
H -0.5091489821 7.9878350396 -2.7131340170
H 0.1742518004 9.5700398890 -4.1628701094
H -0.2244825526 11.8165526648 -5.0964356024
H 1.1873377350 13.5976035028 -1.4394135206
H 1.5648626164 11.3573235779 -0.4871601536
H 2.8488277092 9.5203666525 -0.4924501087
H 3.2250404986 7.3191917213 0.4718532117
O 1.2030868127 -1.4488849898 0.8126877307
C 1.6560645159 -1.8063537904 2.1603535163
C 1.3569682712 -3.2680807680 2.2572558928
C 0.7738518258 -3.7392541709 1.1404795771
C 0.6258079879 -2.6116911683 0.1439419392
H 1.1856039900 -2.7806707265 -0.7821090739
H -0.4157921839 -2.3847034079 -0.1108767687
H 1.6117931452 -3.8348009746 3.1435461672
H 2.7278606559 -1.5717830487 2.2055951883
O 0.8671883515 0.4284661652 2.6823249923
C 0.9248607632 -0.9401648401 3.1994104213
S 1.8190465130 -1.0116212468 4.7725951377
C 0.6373575755 0.0804678873 5.7352195673
C 0.2141867012 1.2430241040 4.8798467856
C 0.3493774280 1.3875990920 3.5615597201
H 1.3001351008 0.4778385524 6.5135247363
H 0.0834419966 2.2890839631 3.0223580085
H -0.2326925112 2.0834314702 5.4061375373
H -0.1130964554 -1.2624515217 3.3318535264
C -0.4894823953 -0.6769325140 6.4102312632
C -0.2217173686 -1.3928764755 7.5878758163
C -1.2281778242 -2.0848944253 8.2471103149
C -2.5523687161 -2.0837249817 7.7623707475
C -3.6278646647 -2.7995462059 8.4798240602
C -3.3653981000 -4.0039589710 9.1639066181
C -4.3695743776 -4.6810923614 9.8433250324
C -5.6664202955 -4.1528446455 9.8542411941
Cl -6.9295851937 -4.9902386156 10.7041240939
C -5.9561748785 -2.9551084675 9.1888390455
C -4.9432376595 -2.2928915804 8.5078449719
C -2.8130349075 -1.3642667882 6.5823333407
C -1.8009725233 -0.6751201202 5.9175261717
H 0.7838990989 -1.3963780291 8.0019029863
H -0.9973488602 -2.5981745089 9.1750556597
H -2.3680485148 -4.4322001555 9.1408439538
H -4.1602171479 -5.6120523057 10.3587471470
H -6.9607163517 -2.5476688188 9.2227912866
H -5.1677033582 -1.3465391568 8.0251633431
H -3.8189548355 -1.3541815494 6.1739077444
H -2.0436331364 -0.1085355221 5.0221563026
C 0.3372192463 -5.1010403158 0.8283813396
C -0.2949774735 -5.3955168121 -0.3940461888
C -0.7051754147 -6.6875237506 -0.6988027611
C -0.5025798643 -7.7495197743 0.2025178391
C -0.9323833438 -9.1248822851 -0.1212738814
C -2.0834181809 -9.3602487251 -0.8988286326
C -2.4947376342 -10.6511907067 -1.2055159073
C -1.7464653302 -11.7381413210 -0.7397630146
Cl -2.2508066975 -13.3573638820 -1.1245116031
C -0.5969539769 -11.5353285098 0.0317982253
C -0.2022181657 -10.2388990890 0.3380691522
C 0.1311495048 -7.4501940458 1.4274610377
C 0.5396300616 -6.1621574282 1.7333850529
H -0.4633785953 -4.6124231551 -1.1293769541
H -1.1622271204 -6.8847966213 -1.6631120644
H -2.6866546429 -8.5243956486 -1.2402880390
H -3.3911150132 -10.8232117197 -1.7913387462
H -0.0199828383 -12.3859172106 0.3778368315
H 0.7065618695 -10.0917138017 0.9135075076
H 0.2805494084 -8.2381563322 2.1583606162
H 1.0198481570 -5.9784556342 2.6896448514
O -1.0140434111 0.6883100407 0.3938322685
C -1.4898337638 1.1947265871 -0.8906099807
C -2.9376920257 0.8205902371 -0.9091100257
C -3.2993374502 0.1593615077 0.2044952035
C -2.0971931015 0.0203331506 1.1098447374
H -2.2253423598 0.5242112139 2.0735787789
H -1.8015719907 -1.0193021087 1.2898733586
H -3.5736571956 1.0818496825 -1.7450114688
H -1.3204099739 2.2784093674 -0.8846510601
O 0.7377271771 0.5912015781 -1.6409372029
C -0.6660284743 0.5775072558 -2.0308705977
S -0.9328976553 1.5402447188 -3.5473172346
C 0.1221842352 0.4582964480 -4.6612849971
C 1.3702095372 0.0512617712 -3.9271042283
C 1.6256914719 0.1463273421 -2.6213835696
H 0.4201418225 1.1731454730 -5.4376742751
H 2.5840979044 -0.1108615177 -2.1876003414
H 2.1733722536 -0.3467928617 -4.5428555444
H -0.9365930543 -0.4711856175 -2.1938035968
C -0.6441113593 -0.6710060047 -5.3196078924
C -1.4250982314 -0.3988432662 -6.4536297177
C -2.1366640344 -1.4072585945 -7.0896570288
C -2.0930566733 -2.7366182851 -6.6229708823
C -2.8344235547 -3.8138080680 -7.3131506002
C -4.0797620614 -3.5614207369 -7.9218097307
C -4.7817884690 -4.5681731081 -8.5728834300
C -4.2376826191 -5.8563868030 -8.6301954954
Cl -5.1067256255 -7.1233184091 -9.4450456877
C -2.9994906970 -6.1356306149 -8.0403565049
C -2.3120727943 -5.1202779597 -7.3874160580
C -1.3078595958 -3.0016692016 -5.4867551168
C -0.5968802779 -1.9890441373 -4.8467174651
H -1.4665042679 0.6124027482 -6.8517956007
H -2.7029709973 -1.1723173446 -7.9851736505
H -4.5205909121 -2.5710158941 -7.8610934451
H -5.7444870630 -4.3663553550 -9.0297307078
H -2.5805566124 -7.1336324362 -8.1098466114
H -1.3356186736 -5.3369560364 -6.9646172644
H -1.2643638694 -4.0121835446 -5.0921918585
H 0.0187219172 -2.2345794465 -3.9850531653
C -4.6119548396 -0.3627958083 0.5875173073
C -4.7693453660 -1.1420171218 1.7490139416
C -6.0137224155 -1.6373888093 2.1190934976
C -7.1622993982 -1.3747403787 1.3490081472
C -8.4884716445 -1.8903631909 1.7454742661
C -8.6191453468 -3.1328662102 2.3960308445
C -9.8641329085 -3.6232522560 2.7703894064
C -11.0088586468 -2.8644637727 2.5028081100
Cl -12.5706944664 -3.4684462225 2.9742335732
C -10.9099005443 -1.6256592694 1.8605687629
C -9.6590651527 -1.1512519012 1.4846893112
C -7.0000892378 -0.5931652670 0.1855103505
C -5.7598413190 -0.0997583954 -0.1860921266
H -3.9141212070 -1.3637067208 2.3828243464
H -6.1050487249 -2.2129014152 3.0346761710
H -7.7394806544 -3.7425233855 2.5796669560
H -9.9569910987 -4.5884376795 3.2562677959
H -11.8036681327 -1.0421317092 1.6685920102
H -9.5909114996 -0.1754471697 1.0136251142
H -7.8591195525 -0.3918126123 -0.4460509845
H -5.6829609187 0.5005928548 -1.0875262385
