184
# extracted from Terachem optimization
Fe 0.9215991437 0.8889141214 0.6607281812
O 1.0651182235 2.8363131891 1.1976882578
C 2.3239335113 3.1115998909 1.8962208790
C 2.4472231995 4.5999139351 1.8242477125
C 1.4953426887 5.1425613571 1.0444572768
C 0.6092582666 4.0426343503 0.5060392587
H -0.4474535042 4.1753220383 0.7562044268
H 0.7114473411 3.8974636336 -0.5742548877
H 3.2352984659 5.1230862262 2.3500657207
H 2.2078524063 2.7179178937 2.9126357754
O 2.9390915945 1.0065691786 0.8942985227
C 3.4492474637 2.3555494377 1.1889792449
S 4.9198444823 2.2860769450 2.2327688185
C 6.0002156622 1.3893915508 0.9867722910
C 5.2018766229 0.2882882206 0.3455388755
C 3.8780806517 0.1257848787 0.3403487394
H 6.7404836190 0.9152842375 1.6420299478
H 3.3767233270 -0.7286044497 -0.0947348918
H 5.7752528299 -0.4856761396 -0.1596450431
H 3.6846919591 2.8161630866 0.2236256504
C 6.7244470593 2.3104497036 0.0274869453
C 7.9124760037 2.9322547068 0.4398975021
C 8.5978911901 3.7947568412 -0.4064318684
C 8.1255093592 4.0746299336 -1.7029570090
C 8.8597268602 4.9928941526 -2.6053586128
C 9.5151218488 6.1292963024 -2.1015873949
C 10.2030097454 6.9989411689 -2.9434632664
C 10.2452263301 6.7344333547 -4.3130464835
Cl 11.1084793024 7.8208486127 -5.3780800271
C 9.6080105527 5.6110860807 -4.8419693878
C 8.9211667594 4.7522542318 -3.9883888500
C 6.9383079642 3.4449365831 -2.1112917544
C 6.2524254726 2.5767528271 -1.2639298355
H 8.3125699574 2.7322459089 1.4315079657
H 9.5322357437 4.2340301388 -0.0711315449
H 9.4667374483 6.3563358009 -1.0405213614
H 10.6972276850 7.8782497594 -2.5447629983
H 9.6609435217 5.4078514527 -5.9061011809
H 8.4555430306 3.8630209822 -4.4035809611
H 6.5381433261 3.6496465288 -3.0998360792
H 5.3483778387 2.0915727679 -1.6238977236
C 1.2569275724 6.5456205699 0.7053622315
C 0.2656045106 6.9033383293 -0.2267987647
C 0.0292487128 8.2342007227 -0.5501204475
C 0.7717324385 9.2706854987 0.0428020019
C 0.5160184080 10.6889570246 -0.2925324625
C 0.1365085912 11.0687110791 -1.5918424181
C -0.1067079369 12.4007502448 -1.9130240472
C 0.0243445445 13.3774126658 -0.9243131718
Cl -0.2827170130 15.0525547230 -1.3185521453
C 0.3981788906 13.0308610204 0.3750936281
C 0.6433322964 11.6954444938 0.6808408003
C 1.7659746238 8.9084726715 0.9744618526
C 2.0029432118 7.5819890396 1.2995389003
H -0.3396995212 6.1385018430 -0.7071850514
H -0.7629960862 8.4772471030 -1.2510521016
H 0.0606810750 10.3195568770 -2.3745864790
H -0.3862525550 12.6844228739 -2.9218408393
H 0.4870824037 13.7973103582 1.1373011542
H 0.9055677617 11.4323172047 1.7013251170
H 2.3749305140 9.6819926451 1.4312074560
H 2.7778921119 7.3486887447 2.0236540524
O 0.9833527064 -1.1505292357 0.5990023902
C 1.4465746008 -1.7738563333 1.8408474316
C 1.1704428191 -3.2266767391 1.6232861038
C 0.6657226023 -3.4666153977 0.3989248029
C 0.5242750358 -2.1586458573 -0.3459252274
H 1.1492021765 -2.0990551730 -1.2436956351
H -0.5116104421 -1.9325995192 -0.6232926469
H 1.4044530508 -3.9600728700 2.3843128715
H 2.5142718604 -1.5402986809 1.9402723746
O 0.6353057122 0.3282629682 2.6385230577
C 0.6905169122 -1.0988718564 2.9846496657
S 1.4976563816 -1.3725324594 4.5747437165
C 0.1531652049 -0.4972205172 5.5522434360
C -0.1192838178 0.8292389921 4.8960707169
C 0.1139544164 1.1680737190 3.6269717376
H 0.6512417253 -0.3094374927 6.5101439270
H -0.0802110263 2.1484278746 3.2154295302
H -0.5590025215 1.6023547040 5.5216609575
H -0.3480856224 -1.4398300849 3.0427528211
C -1.0700355334 -1.3669485932 5.7840970996
C -0.9888513457 -2.4580499078 6.6635878180
C -2.0854428770 -3.2820253341 6.8828636479
C -3.3155615958 -3.0524716040 6.2351747764
C -4.4811689231 -3.9415321965 6.4548153405
C -4.3086441687 -5.3228325635 6.6467979458
C -5.3982810865 -6.1682673209 6.8385382401
C -6.6868765297 -5.6326836909 6.8417135913
Cl -8.0623552698 -6.6879908037 7.0756729252
C -6.8898389038 -4.2637665859 6.6607853360
C -5.7906931631 -3.4307851615 6.4682450955
C -3.3958008082 -1.9486625724 5.3721628790
C -2.2950483082 -1.1210793799 5.1507498181
H -0.0567009489 -2.6627453929 7.1851303893
H -1.9992683556 -4.1008926299 7.5902734205
H -3.3117044164 -5.7533412630 6.6212450108
H -5.2526228849 -7.2340134352 6.9781247882
H -7.8945328362 -3.8555935310 6.6847764504
H -5.9570424149 -2.3623607229 6.3646130723
H -4.3282803330 -1.7365906512 4.8570159731
H -2.4059585860 -0.2605719774 4.4970566864
C 0.3003551705 -4.7347407322 -0.2321608002
C -0.1822909087 -4.7646711068 -1.5537729151
C -0.4987995221 -5.9651731437 -2.1781712853
C -0.3586843345 -7.1945836450 -1.5096516548
C -0.6823322956 -8.4732149096 -2.1802549441
C -1.6986053950 -8.5456377958 -3.1499648207
C -2.0011668499 -9.7422903691 -3.7926461926
C -1.2797435649 -10.8929922620 -3.4693308469
Cl -1.6493561946 -12.3997647204 -4.2740288823
C -0.2649183970 -10.8528574488 -2.5115829848
C 0.0251496124 -9.6496639352 -1.8753466893
C 0.1077874603 -7.1590764372 -0.1790123031
C 0.4330126074 -5.9634110640 0.4431499278
H -0.3040521804 -3.8449013110 -2.1205088873
H -0.8324478767 -5.9514159107 -3.2111467678
H -2.2841524752 -7.6632693321 -3.3896980628
H -2.7913163050 -9.7853433390 -4.5344251650
H 0.2951605419 -11.7513005024 -2.2761794847
H 0.8368361937 -9.6232552339 -1.1544901831
H 0.1968522855 -8.0843900884 0.3810862938
H 0.7874061216 -5.9853609254 1.4696384482
O -1.0702656476 0.9769941422 0.4809437162
C -1.5269714210 1.4889939202 -0.8058216461
C -2.8829424851 0.8773455129 -0.9726310104
C -3.1945792160 0.0653439681 0.0534850705
C -2.0556087293 0.0565456142 1.0430460497
H -2.3363983345 0.4340113633 2.0308736872
H -1.5797419938 -0.9207285093 1.1565276770
H -3.5014086115 1.1080838447 -1.8303175603
H -1.5450888460 2.5834299715 -0.7278887125
O 0.8321354881 1.3263793140 -1.3329603139
C -0.5184906081 1.0858365677 -1.8841551171
S -0.7917872180 2.0323210326 -3.3943123288
C 0.5016591826 1.0996658143 -4.3811757494
C 1.7698037407 1.0766049960 -3.5720211004
C 1.8851334543 1.1918991893 -2.2486902821
H 0.6576523563 1.7609176791 -5.2411785766
H 2.8319227302 1.2171528311 -1.7289048166
H 2.7022774001 0.9707077362 -4.1212637850
H -0.5725934190 0.0146283395 -2.1021357822
C 0.0103542990 -0.2535743837 -4.8682478033
C -1.0333481420 -0.3191046657 -5.8046885295
C -1.5165415614 -1.5427487200 -6.2508335851
C -0.9748177617 -2.7574650232 -5.7859401114
C -1.5155181475 -4.0649354742 -6.2293693183
C -2.8900798018 -4.2302604124 -6.4709079463
C -3.4137739359 -5.4605755180 -6.8597728764
C -2.5560521863 -6.5506533884 -7.0130673163
Cl -3.2058256821 -8.1032099731 -7.4924232816
C -1.1848048992 -6.4163023697 -6.7890598232
C -0.6753562387 -5.1791932963 -6.4009880033
C 0.0896908802 -2.6841662251 -4.8741294658
C 0.5711341914 -1.4557529723 -4.4203505536
H -1.4740908401 0.5981737762 -6.1879410686
H -2.3095141691 -1.5599406160 -6.9920078171
H -3.5691366793 -3.3949926563 -6.3269434778
H -4.4775877580 -5.5768325780 -7.0367231069
H -0.5251425858 -7.2653446090 -6.9317677092
H 0.3973276762 -5.0761118396 -6.2646942650
H 0.5389695452 -3.5988465516 -4.4990308853
H 1.4041387555 -1.4373211333 -3.7234299979
C -4.4062148705 -0.7199813427 0.2912133270
C -4.5081791985 -1.5624950928 1.4143354548
C -5.6547465265 -2.3124350803 1.6484759134
C -6.7536024494 -2.2574536139 0.7720667082
C -7.9764498588 -3.0520785717 1.0223410438
C -7.9036007530 -4.3218753093 1.6216428398
C -9.0494396097 -5.0736428346 1.8632966464
C -10.2955754811 -4.5544445106 1.5075255607
Cl -11.7401125806 -5.4900560844 1.8105853566
C -10.3998364719 -3.2960429703 0.9122873822
C -9.2451297324 -2.5572827257 0.6718548858
C -6.6464624657 -1.4139647189 -0.3528382814
C -5.5051313195 -0.6632645722 -0.5877633072
H -3.6908924786 -1.6331236288 2.1280622407
H -5.7114284636 -2.9312424472 2.5386389779
H -6.9370972282 -4.7464316889 1.8769822521
H -8.9803257802 -6.0569980124 2.3155289811
H -11.3742162779 -2.8986276873 0.6497014098
H -9.3398212765 -1.5674842451 0.2352230975
H -7.4654584114 -1.3673953718 -1.0633434537
H -5.4658880437 -0.0283584653 -1.4680361825
