130
# extracted from Terachem optimization
Mn -0.0254751608 0.2405169917 0.2652010702
O 0.1896600689 2.2873701768 0.2259403260
C 1.4300821675 2.7513145873 0.8473378321
S 1.4560627921 4.5656171645 0.5937519433
C 0.3772449950 4.3674316093 -0.8266700267
C -0.1439845360 3.1326695763 -0.8629122597
H -0.7980766968 2.7038889300 -1.5982200716
H 1.3629206452 2.5031490188 1.9068400263
O 2.2484488490 0.5802715875 0.2525828782
C 2.6113977826 2.0053375536 0.1785860286
C 3.9312236194 2.3219252898 0.8052391046
C 4.8236325103 1.3740947872 1.2005388802
C 4.4532276808 -0.0300917690 0.9911138385
C 3.2341454211 -0.3585714725 0.5542547026
H 4.1784835615 3.3776057978 0.8560546674
H 2.8739316982 -1.3687301313 0.3977086819
H 5.1729081588 -0.8070051485 1.2206409585
H 2.5978186327 2.2679896137 -0.8913195733
C 6.1268904345 1.7508275508 1.7931900441
C 6.2190101312 2.8240269035 2.6027757915
C 7.3638092052 0.8812858245 1.4842619671
O 7.1548300182 -0.4428305628 1.9803974300
C 7.6279323432 0.7524444902 -0.0158412350
O 8.4390682229 1.4790992297 2.1524354340
H 7.1720778518 3.1218744023 3.0223152712
H 5.3455128164 3.4055820291 2.8835170927
H 7.2814384346 -0.3931458386 2.9448425407
H 7.8299329520 1.7376709221 -0.4443686982
H 8.4982259397 0.1066538935 -0.1737044917
H 6.7827856246 0.2999172095 -0.5431594666
H 9.2626188324 1.0548512437 1.8569747208
C 0.1002562262 5.4913153889 -1.7286003610
C 0.9667245342 6.5087216896 -1.8614727459
C -1.2561248700 5.4827423007 -2.4632134290
O -1.4682697089 4.2038621976 -3.0967875463
C -2.4300721379 5.6949039399 -1.5080399133
O -1.1828053637 6.4755921115 -3.4427279300
H 0.7377508616 7.3442881615 -2.5116962975
H 1.9227318194 6.5278570087 -1.3454135113
H -0.9451173007 4.2412168285 -3.9176303945
H -2.3432676555 6.6674400848 -1.0172792406
H -3.3681601975 5.6561331285 -2.0725501586
H -2.4641588047 4.9158690073 -0.7415794991
H -2.0819443133 6.7068405348 -3.7309632689
O -0.2312895887 -1.7215332206 0.4604875082
C -0.1179729068 -2.2115937732 1.8351871221
S -0.9641374286 -3.8323719545 1.8354181825
C -0.4997537387 -4.0171086205 0.0978958043
C -0.1565193442 -2.8343355919 -0.4339137767
H 0.1230612099 -2.5907569956 -1.4450302490
H 0.9526437609 -2.3418000581 2.0324534944
O -0.3696408174 0.1414807792 2.2336787617
C -0.7355397906 -1.1924243915 2.7798963920
C -0.2401003501 -1.3318155908 4.1892010053
C -0.2500525303 -0.2599047499 5.0124104665
C -0.7200352582 1.0136836418 4.4360434204
C -0.7489044722 1.1960387947 3.1153849462
H 0.0669280921 -2.3161458748 4.5306366397
H -1.0024461577 2.0975730581 2.5746981720
H -0.9892927329 1.8262692222 5.1027407436
H -1.8341316637 -1.2319876272 2.7182639632
C 0.2369629483 -0.3373108943 6.4144842567
C 1.3623690101 -1.0065333017 6.6993480048
C -0.5864635168 0.3648676216 7.5126894971
O -0.6612211992 1.7694044074 7.2376382262
C -2.0268644305 -0.1410743747 7.5737358346
O 0.0980357429 0.1567822853 8.7159373482
H 1.7060946384 -1.1052669461 7.7217131599
H 1.9726891821 -1.4516326571 5.9181526730
H 0.1999978639 2.1367019648 7.5055326323
H -2.0382522380 -1.2074071421 7.8146493047
H -2.5728476876 0.4106601815 8.3461537132
H -2.5489118739 0.0150317854 6.6246979647
H -0.4781271517 0.4278225844 9.4506392750
C -0.5660818354 -5.3277559050 -0.5554031343
C -1.0819400647 -6.3919403095 0.0804136095
C 0.0218864533 -5.4634295595 -1.9773506277
O -0.3457742748 -4.3363755445 -2.7911605971
C 1.5503906489 -5.5073249716 -1.9530693506
O -0.5310530939 -6.6267680578 -2.5210120164
H -1.1482344748 -7.3507800257 -0.4186264086
H -1.4480956491 -6.3472897893 1.1029173256
H -1.2476864341 -4.5347481406 -3.0993745279
H 1.8896983851 -6.3767651377 -1.3846946929
H 1.9290248633 -5.5727742302 -2.9790076031
H 1.9711905604 -4.6063326029 -1.4977937983
H 0.0153138528 -6.9146608199 -3.2721159462
O -2.6066216899 0.3252516075 -0.3233373816
C -2.7242112488 0.4839995304 -1.7562856792
S -4.4167312895 -0.0758854374 -2.2237620741
C -4.7324104412 -0.6128018415 -0.5660835648
C -3.6777212140 -0.2881441004 0.2446821689
H -3.6047125598 -0.4776940669 1.3050835357
H -2.6167836299 1.5478659351 -1.9841164648
O -0.3433232992 0.1713152801 -1.8864227198
C -1.6151711476 -0.3344460987 -2.4419186345
C -1.6564927013 -0.2280960546 -3.9378391785
C -0.5313963336 -0.2611926636 -4.6875471879
C 0.7539763428 -0.3071568940 -3.9750351564
C 0.8125015335 -0.0675937793 -2.6656704329
H -2.6355132668 -0.2273051233 -4.4061865639
H 1.7139684480 0.0318579257 -2.0757697331
H 1.6643556744 -0.4723348078 -4.5396448976
H -1.7078772722 -1.3788927198 -2.1053760875
C -0.5863006813 -0.2192803403 -6.1696837435
C -1.4213771897 0.6288195058 -6.7906833450
C 0.3348690085 -1.1710464183 -6.9583585483
O 1.7042618113 -0.8601372528 -6.6800632282
C 0.1327062239 -2.6355596517 -6.5671030865
O 0.0627380822 -0.9491946273 -8.3129259172
H -1.4972066384 0.6454913021 -7.8711759403
H -2.0259708798 1.3394840521 -6.2338307023
H 1.9050361047 -0.0588894927 -7.1964053531
H -0.8902990726 -2.9409682967 -6.8036377631
H 0.8333996493 -3.2577180126 -7.1339305169
H 0.3201833906 -2.8109062715 -5.5026113725
H 0.5142966373 -1.6331896658 -8.8359126487
C -5.9702437464 -1.2789339023 -0.1935215398
C -6.7787396678 -1.8122815197 -1.1374728216
C -6.3641739717 -1.3315670843 1.3036013214
O -5.2296952242 -1.6861879956 2.1027884696
C -6.8575301522 0.0275549128 1.8021670435
O -7.3424381986 -2.3238642447 1.4034427491
H -7.7047190514 -2.2969893988 -0.8531128376
H -6.5309508469 -1.8022738893 -2.1958201848
H -5.1860356464 -2.6589245332 2.0757859637
H -7.7342334618 0.3458371732 1.2321581962
H -7.1239729252 -0.0536681306 2.8614911965
H -6.0831946147 0.7951687346 1.7125471901
H -7.8418029990 -2.1968300277 2.2283260545
