100
# extracted from Terachem optimization
Mn -0.2225034846 0.2225590833 0.0873919664
O -0.0536892966 2.2791006285 0.0265876755
C 1.1232925563 2.7776031686 0.7388319244
S 1.1651411330 4.5896186200 0.4400487523
C 0.1544124806 4.3634239322 -1.0057851680
C -0.3581694279 3.1293019292 -1.0718007777
H -0.9922029944 2.7011845807 -1.8298918003
H 0.9593328914 2.5613867570 1.7949879764
O 2.0744389926 0.6556088684 0.1164049834
C 2.3866806065 2.0686544953 0.2275456300
S 3.7257624905 2.4001940692 1.4150978916
C 5.0359126357 1.4276086353 0.5303571105
C 4.4545850520 0.1334635173 0.0319657057
C 3.1716976314 -0.1949106301 -0.1138505142
H 5.7384840467 1.1840844509 1.3378052257
H 2.8434202443 -1.1773210459 -0.4330215071
H 5.1709190149 -0.6447138962 -0.2215575150
H 2.6586338990 2.4179592336 -0.7741403265
C 5.7742301977 2.2268641473 -0.5593551915
C 6.6215945777 3.3756366242 -0.0152699316
O 7.1886225152 4.0201497451 -1.1365274394
H 6.4345875878 1.5423075242 -1.1066443880
H 5.0606789091 2.6223900932 -1.2922981603
H 5.9988156866 4.0777696939 0.5674924255
H 7.3984688731 2.9904474946 0.6643593268
H 7.8873504176 4.6302352339 -0.8444954050
C -0.0324463055 5.4931892341 -1.9851397653
C -1.3830716632 5.4884415810 -2.7035224750
O -1.5377835603 4.2496900890 -3.4011125809
H 0.0757670656 6.4494679350 -1.4597869955
H 0.7788049206 5.4500511319 -2.7238022264
H -2.1957506868 5.6291282439 -1.9765319657
H -1.3984487506 6.3374632612 -3.3962525912
H -2.1444065878 4.3906376555 -4.1441398582
O 0.0758025456 -1.7185144524 0.2834952285
C 0.3558230916 -2.1123644900 1.6726390848
S 0.1871882416 -3.9381178064 1.7179950801
C 0.5960592261 -3.9700708171 -0.0259845849
C 0.4864451989 -2.7729970263 -0.5953822696
H 0.6768930728 -2.4565651484 -1.6096263933
H 1.3906169022 -1.8193322565 1.8848576838
O -0.5587846567 0.0487864364 2.0971241779
C -0.6180885375 -1.3655833260 2.5631147450
S -0.1558054863 -1.5533106379 4.2962560846
C -1.5050866113 -0.4677843335 4.9740844270
C -1.4944695088 0.8343430410 4.2189686142
C -1.1004793856 1.0305027644 2.9627545128
H -1.1778801973 -0.2899116987 6.0045492465
H -1.1451224133 1.9835255470 2.4521280460
H -1.8928226203 1.7086558346 4.7291557436
H -1.6434219887 -1.7018986605 2.3891438478
C -2.9262781084 -1.0663985301 4.9508248236
C -3.1399234675 -2.4353586270 5.5991363489
O -4.3865747651 -2.9048539116 5.0649816049
H -3.5971584834 -0.3366257491 5.4211932955
H -3.2561422977 -1.1474177668 3.9108830475
H -2.3277614650 -3.1286655659 5.3444464304
H -3.1950809933 -2.3545242974 6.6910961591
H -4.6820708196 -3.6810322340 5.5681311113
C 1.1042981560 -5.2163161161 -0.6909713182
C 2.6316357180 -5.3347511155 -0.5693602966
O 3.2053083179 -4.1613601464 -1.1441137415
H 0.6343680440 -6.1055227085 -0.2570654733
H 0.8381087616 -5.1870426363 -1.7524318644
H 2.9248678475 -5.4447621899 0.4842904143
H 2.9443096775 -6.2392854463 -1.1053551729
H 4.1334639860 -4.3563677206 -1.3481380778
O -2.6708694130 0.1488856114 -0.3198755135
C -2.9960390307 0.2223629092 -1.7287196785
S -4.5864797156 -0.6946869120 -1.9687106714
C -4.6240968814 -1.1307547565 -0.2750468085
C -3.5700705619 -0.5907565110 0.3964081666
H -3.3677285527 -0.6954938510 1.4510937152
H -3.1335706291 1.2804392693 -1.9715570287
O -0.6027826027 0.1705862855 -2.0614046125
C -1.8601502540 -0.3886687731 -2.5586970929
S -2.1562460377 0.0087571860 -4.3020116195
C -0.6702932688 -0.8924907518 -4.9619664174
C 0.5219959697 -0.5369091895 -4.1165792429
C 0.5305424991 -0.0552624452 -2.8746140526
H -0.5280688799 -0.4319689328 -5.9476952580
H 1.4274814647 0.2413776316 -2.3454308169
H 1.4982501228 -0.6616355071 -4.5801717241
H -1.8013308929 -1.4709488728 -2.4021114462
C -0.8764701357 -2.4079565877 -5.1272052831
C -1.8501372412 -2.8019481370 -6.2391617618
O -2.0595002985 -4.1913390544 -6.0854488166
H 0.0965911959 -2.8704752200 -5.3361506920
H -1.2321378878 -2.8480436870 -4.1868038561
H -2.7941835300 -2.2390616547 -6.1448948197
H -1.4161167687 -2.5557835944 -7.2204905370
H -2.5242017682 -4.5333218788 -6.8663116778
C -5.6821959620 -2.0351759656 0.2934546213
C -5.7076388022 -2.0789990472 1.8259805235
O -4.4331737718 -2.5083673042 2.2928583782
H -6.6674460627 -1.7312350921 -0.0812539354
H -5.4970637233 -3.0486191930 -0.0897042706
H -5.9718383969 -1.0889390414 2.2274158904
H -6.4981289179 -2.7781254456 2.1236766508
H -4.5136088799 -2.7857178705 3.2366512104
