100
# extracted from Terachem optimization
Mn 0.0392681768 -0.0254836034 0.2535889258
O -0.0749572097 2.2089664064 0.1987393489
C 1.0351354114 2.9175508672 -0.4493928994
S 0.2873482476 4.2142448476 -1.5240383226
C -1.2144481170 4.0947411996 -0.5636194700
C -1.2295703808 3.0290526022 0.2326696460
H -2.0032936564 2.6699022232 0.8968066455
H 1.6374084920 3.3647418432 0.3482292140
O 2.0526518028 0.7351280208 -0.3709816598
C 1.8478019115 1.9005657924 -1.2567820929
C 3.1395814082 2.4451864171 -1.7886306267
C 4.2786436571 2.3063696138 -1.0897468571
C 4.2381539095 1.5485643496 0.1650808904
C 3.1783916592 0.7937926163 0.4653685327
H 3.1326717752 2.9396018732 -2.7546823338
H 3.0697545872 0.1388028829 1.3196477597
H 5.0893719506 1.5408180159 0.8382323849
H 1.2214501363 1.5074252540 -2.0609787028
C 5.6132429642 2.8320903610 -1.6047625152
O 5.4370150774 3.6442018477 -2.7532385127
C 6.5527378842 1.6885407309 -1.9995990292
H 6.0828649832 3.4052956593 -0.7884680310
H 5.2361770055 4.5508988578 -2.4730092377
H 6.1216138949 1.1233574646 -2.8320108852
H 7.5111525425 2.1029572031 -2.3219291006
H 6.7303340066 1.0040656212 -1.1636456186
C -2.2892473025 5.1360493578 -0.7432457451
O -2.4496333994 5.2533862267 -2.1528110200
C -1.9220639206 6.4725689877 -0.0887249230
H -3.2097502604 4.7482006947 -0.2776589046
H -2.9622402152 6.0573149171 -2.3387714471
H -1.7715730712 6.3579663041 0.9893795041
H -1.0110242249 6.8845869977 -0.5329781120
H -2.7361176029 7.1921919164 -0.2347688856
O 0.3090868181 -2.0697844147 0.9317401222
C 0.7981572765 -2.3666679835 2.2751993347
S 0.0580427286 -3.9857806601 2.7496257638
C -0.1088260439 -4.3565894923 1.0084153680
C 0.0387156744 -3.2805412454 0.2416448375
H -0.0501554705 -3.1593823165 -0.8276172345
H 1.8903272593 -2.4384890668 2.2121574371
O 0.6371852464 0.0074077919 2.4406969357
C 0.3684514176 -1.2347859140 3.1974185792
C 1.0906297724 -1.2529974240 4.5133638334
C 1.3020388699 -0.1072444705 5.1794639861
C 0.9180309719 1.1489026245 4.5288884780
C 0.6337508921 1.1753977068 3.2248974649
H 1.3733839527 -2.2069131329 4.9487405249
H 0.4309863202 2.0499605387 2.6231272676
H 0.9169084456 2.0842072412 5.0785706488
H -0.7253868575 -1.2685704979 3.3267046793
C 1.9210290513 -0.0772264014 6.5721410054
O 2.3948481721 -1.3611714511 6.9463263461
C 0.8852527268 0.3472518930 7.6203626469
H 2.7416884224 0.6569730804 6.5706898018
H 3.3208053401 -1.4507780462 6.6733731040
H 0.0866687484 -0.3988682608 7.6755151458
H 1.3688549724 0.4102772045 8.5984499146
H 0.4412077496 1.3211717198 7.3893543171
C -0.4308948359 -5.7718954948 0.6007446653
O -1.4121621534 -6.1962210921 1.5392130451
C 0.8077935949 -6.6749967564 0.6037957100
H -0.8533155193 -5.7425580433 -0.4164506865
H -1.4836685689 -7.1639689174 1.4995587775
H 1.5549708951 -6.3214984578 -0.1137421310
H 1.2609121188 -6.7130807778 1.5991171365
H 0.5236037781 -7.6927906393 0.3117320343
O -2.1316782663 -0.1327556933 0.0373189771
C -2.5041960450 0.1675770063 -1.3461580822
S -4.3021328519 -0.1751642648 -1.4813298143
C -4.1412137139 -1.3057909477 -0.1040130542
C -2.9844706126 -1.1561117281 0.5351530341
H -2.5971795746 -1.6772415472 1.3987885156
H -2.2942465419 1.2264339339 -1.5063560704
O -0.2777412529 -0.5925348470 -1.8652294278
C -1.6899528536 -0.7221192856 -2.2958995489
C -1.8452371250 -0.3262653713 -3.7355944096
C -0.8454777485 -0.5278304557 -4.6087308881
C 0.4299743132 -1.0424374120 -4.1005365604
C 0.6840000341 -1.0381924308 -2.7893276226
H -2.8022926707 0.0570322193 -4.0748603125
H 1.6220649746 -1.2928913061 -2.3111776064
H 1.2063844526 -1.3784678209 -4.7801092164
H -1.9638478800 -1.7740896123 -2.1214457936
C -0.9993808074 -0.2379352583 -6.0984761042
O -2.1829351102 0.5001781236 -6.3571031835
C -1.0942996404 -1.5386607215 -6.9027310738
H -0.1118190696 0.3213933703 -6.4344429213
H -1.9970293043 1.4454296366 -6.2438367536
H -1.9973857322 -2.0858260073 -6.6155160710
H -1.1549232211 -1.3004539134 -7.9676531732
H -0.2247565400 -2.1838936776 -6.7389025475
C -5.2420232388 -2.2818120707 0.2278197590
O -5.3999626040 -3.0845440497 -0.9339846903
C -6.5421566166 -1.5759965956 0.6303431811
H -4.8864463470 -2.8886781320 1.0765249883
H -6.1926557386 -3.6341964265 -0.8192690030
H -6.3940705167 -0.9400672759 1.5088576310
H -6.9255827369 -0.9624967733 -0.1916621962
H -7.3053592960 -2.3209453851 0.8825536243
