106
# extracted from Terachem optimization
Mn -0.1503699298 -0.0800298858 0.0094369778
O 0.0649394474 2.0011363558 -0.0488247810
C 1.4263512635 2.3740010965 0.3248860305
S 1.6335171648 4.1413253192 -0.0538253850
C 0.5179655067 3.9155980035 -1.4985568742
C -0.5505632397 2.9299049236 -1.0150994236
H -1.3613831058 3.4331040994 -0.4844171160
H -0.9332075953 2.3325097124 -1.8346448297
H 1.0620378035 3.4886239844 -2.3512790996
H 1.5138029543 2.2211607814 1.4028846033
O 1.9018264628 0.0962158047 -0.2907475230
C 2.4097522930 1.4747649506 -0.4308958224
C 3.8129880739 1.5542077813 0.0966798647
C 4.6398836464 0.4980698607 -0.0295204991
C 4.1155195305 -0.7255733300 -0.6448013511
C 2.7937999176 -0.8926212425 -0.7459507225
H 4.1655186797 2.4824070160 0.5375983475
H 2.2812177995 -1.7779200362 -1.0995230947
H 4.7739859667 -1.5149239691 -0.9781340399
H 2.3780336780 1.7062511907 -1.5073176939
C 6.0580928107 0.6644276452 0.4733910341
O 6.4615522529 1.7493947296 0.8428641051
C 6.9720901174 -0.5774082439 0.5993367430
O 6.4542407375 -1.6792720673 0.6109910433
C 8.4397786275 -0.3149902657 0.7693325188
H 8.8245104031 0.2631730680 -0.0795543665
H 8.6115937530 0.2989531653 1.6607751057
H 8.9742978238 -1.2620775600 0.8534881813
C -0.0095146467 5.2849612208 -1.9596714500
O 0.4231826124 6.3219595251 -1.5172329874
C -1.1119008040 5.2577854013 -3.0477994674
O -1.6703306830 4.1950896206 -3.2614922045
C -1.4174446350 6.5551766730 -3.7289269984
H -1.5896681643 7.3437191719 -2.9882449784
H -0.5494932369 6.8763283979 -4.3197473101
H -2.2860631614 6.4414569965 -4.3790356257
O -0.0426218115 -2.1480158482 0.2300732002
C 0.7004234466 -2.5102739142 1.4372528602
S 0.4495764927 -4.2956971704 1.7319397797
C -1.1436425961 -4.2009621305 0.8152747767
C -0.8249433990 -3.2474152260 -0.3340040415
H -0.2208289811 -3.7342179874 -1.1046845243
H -1.7137060350 -2.8041406391 -0.7741580269
H -1.9442244975 -3.7924779672 1.4442982669
H 1.7601808331 -2.3278594124 1.2421378054
O 0.1605632809 -0.2528392105 2.0560773616
C 0.2177837149 -1.6239223974 2.5905003578
C 1.1313439309 -1.6568525093 3.7818504878
C 1.2133810358 -0.5837365596 4.5920889753
C 0.4255184261 0.6084357950 4.2607571263
C -0.0689536986 0.7413188650 3.0273096332
H 1.6887583891 -2.5622980433 4.0052714589
H -0.6052728699 1.5912804459 2.6247224107
H 0.2609856327 1.3958348547 4.9830155527
H -0.8107275873 -1.9010924254 2.8729423312
C 2.1215017647 -0.6904021960 5.7976306616
O 2.5372162928 -1.7683726109 6.1724067813
C 2.5999502682 0.6109206158 6.4850669363
O 2.4606882475 1.6603721684 5.8833864379
C 3.2631982892 0.4610303433 7.8221621277
H 2.5571868982 0.0379233053 8.5478516327
H 4.0933711754 -0.2503081468 7.7533187606
H 3.6177502650 1.4322292349 8.1697301221
C -1.5848778112 -5.6055831867 0.3795615645
O -0.9544666002 -6.6004820789 0.6472332798
C -2.9195838779 -5.6789696674 -0.4078880913
O -3.4275046305 -4.6314323257 -0.7745451027
C -3.4722963361 -7.0446131964 -0.6704897249
H -2.7149491858 -7.6763668888 -1.1481775224
H -3.7181259819 -7.5356148930 0.2799174653
H -4.3633402818 -6.9729332563 -1.2954585022
O -2.2476832293 -0.1174475219 -0.0213483565
C -2.8976727978 0.3714449078 -1.2262158537
S -4.6582692062 -0.1450113228 -1.1792888468
C -4.2471893800 -1.4125308944 0.0876595017
C -3.1720884188 -0.7285277363 0.9257081807
H -3.5892861552 0.0547421048 1.5657123528
H -2.5883553670 -1.4277340659 1.5174132266
H -3.8444847234 -2.3209301949 -0.3751880375
H -2.8597915641 1.4615412395 -1.2154494658
O -0.6934328346 -0.1176146984 -2.0907665232
C -2.1283101236 -0.1818305977 -2.4401907703
C -2.4254537171 0.6376798645 -3.6660719195
C -1.4659133346 0.9439025636 -4.5555013674
C -0.1149648805 0.4171508706 -4.3481845305
C 0.2139835817 -0.1000063692 -3.1645715885
H -3.4429485656 0.9907769511 -3.8123167772
H 1.1760526813 -0.5109781727 -2.8937493046
H 0.6208816498 0.4291301647 -5.1418844951
H -2.3712157833 -1.2452864918 -2.5834931643
C -1.8352063085 1.8270214103 -5.7214168265
O -2.9780088687 1.9138586661 -6.1200694888
C -0.7288881376 2.7316523629 -6.3113274311
O 0.2562362555 2.9475551963 -5.6253917604
C -0.9933141603 3.3364862610 -7.6577002041
H -1.1146497885 2.5452143639 -8.4082835261
H -1.9404083302 3.8873069502 -7.6429099479
H -0.1703254072 3.9944761579 -7.9401582684
C -5.5148209014 -1.8248533447 0.8447731303
O -6.6116672182 -1.4136732098 0.5486975922
C -5.3155523722 -2.8622745411 1.9812036732
O -4.1748892201 -3.1875599965 2.2709008340
C -6.5542568360 -3.3833025268 2.6404046200
H -7.1333256798 -2.5545870500 3.0652653483
H -7.2067926684 -3.8540653456 1.8950855264
H -6.2891943733 -4.0989108961 3.4196742618
