106
# extracted from Terachem optimization
Mn -0.1884172249 -0.0389528218 -0.1663916840
O 0.1062014709 2.1821790456 -0.2102618556
C 1.4632623773 2.5515663676 0.1508234002
S 1.7215791434 4.2840700820 -0.3648717352
C 0.5578434862 3.9999587656 -1.7579065759
C -0.5261277395 3.0970627328 -1.1606956843
H -1.2712858393 3.6760858611 -0.6086724804
H -1.0038510537 2.4975431284 -1.9309743495
H 1.0586986381 3.4823292370 -2.5856987809
H 1.5394247380 2.4830721390 1.2389929830
O 1.9446704494 0.2142868632 -0.2436088612
C 2.4539571506 1.5761160345 -0.5067719155
C 3.8468332976 1.7255319384 0.0358413347
C 4.6706866742 0.6664350327 0.1420349143
C 4.1731169446 -0.6548912294 -0.2532149708
C 2.8619729857 -0.8360253279 -0.4237766686
H 4.1937588483 2.7187231401 0.3069435284
H 2.3691132592 -1.7759614752 -0.6395212527
H 4.8415158415 -1.4950720806 -0.3771607186
H 2.4340876707 1.7073039217 -1.6005026498
C 6.0660419583 0.9223333671 0.6685291046
O 6.5099927425 2.0506843941 0.7405798355
C 6.8881846043 -0.2703051706 1.2143666455
O 6.2995986957 -1.3071447685 1.4623826964
C 8.3478196719 -0.0250495050 1.4583699956
H 8.8440597667 0.2716209694 0.5262090551
H 8.4769254470 0.8132599099 2.1523285265
H 8.8112800795 -0.9265022211 1.8612507366
C 0.0436789978 5.3432712962 -2.3016962196
O 0.4661505388 6.4048491171 -1.9102531479
C -1.0496083564 5.2475023219 -3.3966297807
O -1.5648103363 4.1587235691 -3.5851750354
C -1.3982011336 6.5116585644 -4.1189226309
H -1.6535030091 7.3015858974 -3.4035176487
H -0.5254384330 6.8764038535 -4.6757081418
H -2.2273148293 6.3316354767 -4.8044865819
O -0.0968420328 -2.1654913791 0.5668274445
C 0.5770360009 -2.3263679041 1.8451671970
S 0.2548389102 -4.0239210411 2.4554249062
C -1.2463680734 -4.0950920556 1.3940710080
C -0.8038617295 -3.3640265011 0.1292047040
H -0.1240277229 -3.9751858133 -0.4718854241
H -1.6460566465 -3.0358223051 -0.4761436832
H -2.0865229195 -3.5609815833 1.8565011211
H 1.6516359958 -2.1997450959 1.6892583733
O -0.0874132387 -0.0063255030 2.0077715698
C 0.0380216974 -1.2491226428 2.7949172406
C 0.9283615988 -1.0364200696 3.9841246726
C 0.9957774788 0.1695895933 4.5774636452
C 0.2096059046 1.2694787922 4.0123795665
C -0.2871146977 1.1550947514 2.7782135468
H 1.4927747891 -1.8776234220 4.3775456754
H -0.8085942734 1.9230018178 2.2230184570
H 0.0528541809 2.1899712726 4.5577337835
H -0.9848794244 -1.5168782814 3.1059394316
C 1.8865392631 0.3079573545 5.7902713584
O 2.3278992484 -0.6695615975 6.3604053376
C 2.3374762096 1.7242953208 6.2153920342
O 2.3025291720 2.6028980132 5.3720186024
C 2.8644735497 1.8816463165 7.6101717363
H 2.0718659817 1.6641852383 8.3376683142
H 3.6606592434 1.1528397490 7.7968783502
H 3.2325214830 2.8982725657 7.7549548120
C -1.6861437163 -5.5536310385 1.2059488788
O -1.1744809924 -6.4629301006 1.8155361549
C -2.8485437250 -5.7888205333 0.2049227621
O -3.1832292587 -4.8592662514 -0.5088247464
C -3.4497360983 -7.1601572907 0.1838650809
H -2.6682819681 -7.9170450272 0.0541378032
H -3.9218990087 -7.3735908023 1.1513984788
H -4.1899772420 -7.2293568911 -0.6142445351
O -2.2116907296 0.1707477810 -0.2870074980
C -2.7887311572 0.1859123081 -1.6241449094
S -4.4808772733 -0.5424986834 -1.5070887206
C -4.1923798334 -1.0093411568 0.2715118006
C -3.2346806503 0.0777103019 0.7478657523
H -3.7379757500 1.0427753956 0.8483064488
H -2.7047364087 -0.1763227091 1.6667010986
H -3.7308040529 -2.0000260842 0.3302432829
H -2.8594792837 1.2240296923 -1.9581317901
O -0.4839725379 -0.2563844681 -2.1984546874
C -1.8756485870 -0.6275412587 -2.5469230707
C -2.1522269523 -0.3544358475 -3.9962467667
C -1.1626252164 -0.3950504933 -4.9062325944
C 0.2019697691 -0.6816607242 -4.4509266179
C 0.4977063067 -0.6055298124 -3.1529642754
H -3.1748890464 -0.1548359570 -4.3056051223
H 1.4749674693 -0.7223671072 -2.7050432267
H 0.9893283058 -0.9177711769 -5.1531955462
H -1.9799356245 -1.6977980263 -2.3131350990
C -1.5433548678 -0.1432044909 -6.3501770256
O -2.7073306483 -0.1582589506 -6.6959349978
C -0.4361860947 0.2400109276 -7.3600916313
O 0.6342025603 0.6173439134 -6.9189893061
C -0.8004510144 0.1801622886 -8.8135540138
H -1.0384347589 -0.8523411067 -9.0995621224
H -1.7062129320 0.7667865879 -9.0014412345
H 0.0292346615 0.5506684848 -9.4170297488
C -5.4669912011 -1.0880894863 1.0896536251
O -6.3020126333 -0.1621945615 1.1076518974
C -5.6294794661 -2.3206936037 1.8971244868
O -4.7383990816 -3.1873135926 1.8999246205
C -6.8967677784 -2.4693951186 2.7096623359
H -7.4944577019 -1.5605183992 2.5996032143
H -7.4591702649 -3.3375216549 2.3488647381
H -6.6450148982 -2.6411555541 3.7609566455
