130
# extracted from Terachem optimization
Mn 0.3751787493 0.3361813366 0.1751748205
O 0.9586300068 2.3249384242 0.1681849306
C 2.1710000654 2.6091287077 0.9134796393
S 2.5936575503 4.3603605257 0.6333472537
C 1.7671496554 4.2653633148 -1.0230096712
C 0.5491621982 3.3883802767 -0.7722087233
H -0.2532465364 3.9530009348 -0.3046276976
H 0.2293217594 2.8771743230 -1.6797228657
H 2.4639872687 3.7901353980 -1.7190995502
H 1.9593949754 2.4553251255 1.9749002955
O 2.5618071512 0.3276692736 0.3080501456
C 3.2353647357 1.6240555809 0.4281800944
S 4.6406386511 1.5570015579 1.5758933372
C 5.5994450655 0.3483144267 0.5493696736
C 4.7222830744 -0.7791203573 0.1113685727
C 3.3927041482 -0.7622338123 0.0244193848
H 6.3975946746 0.0008690841 1.2061980293
H 2.7924241520 -1.6141255364 -0.2651028619
H 5.2199375250 -1.7030375442 -0.1714622359
H 3.5999047942 1.8738882792 -0.5726254179
C 6.2223716392 1.1258842124 -0.6219261868
O 5.5855026066 1.3764622823 -1.6292250082
C 7.7276907233 1.4801152040 -0.4769491629
N 8.3288883210 0.1663558546 -0.7733029846
N 8.0030177591 2.5912014214 -1.3580625339
N 8.0187608948 1.7879418308 0.9160083602
H 8.4683379109 0.0651496336 -1.7752138168
H 9.2243982404 0.0300573038 -0.3078246316
H 9.0006327176 2.7002645794 -1.5258325755
H 7.5141556876 2.4926501036 -2.2452120271
H 7.8277822693 2.7771381530 1.0652505373
H 9.0081193205 1.6461207356 1.1176224548
C 1.5365473104 5.6753431922 -1.6066601357
O 2.3647840745 6.1035585091 -2.3793899978
C 0.2282383248 6.4741946123 -1.3326124688
N -0.7107661377 5.8111987732 -2.2653637431
N -0.2790909311 6.2230715151 0.0160521781
N 0.5441138709 7.8696792357 -1.5342101737
H -1.6750359988 6.0687453742 -2.0516392418
H -0.5196429196 6.1328858263 -3.2130455233
H -1.2208849198 6.6127691211 0.0878095993
H 0.2875811825 6.7731497534 0.6612612572
H 1.1628079375 8.0013522698 -2.3316716907
H -0.2934620220 8.4347426305 -1.6550762359
O 0.3925907264 -1.7211768939 0.3575520817
C 0.7557791070 -2.2014510015 1.6902350061
S 0.2264517501 -3.9600241408 1.8185070946
C -0.8765769430 -3.7245769261 0.3560762005
C -0.0735209665 -2.8015742652 -0.5336344154
H 0.7951882371 -3.2875113574 -0.9715195377
H -0.6678984149 -2.3281960061 -1.3070867508
H -1.7951554178 -3.2198264538 0.6833984274
H 1.8415073411 -2.1310017323 1.7957493965
O 0.2532296187 0.0884746911 2.2844035948
C 0.0569396947 -1.3057643298 2.7078845188
S 0.7133811188 -1.5817925911 4.3791087968
C -0.4439367627 -0.4158546258 5.2040150924
C -0.5312091222 0.8829417231 4.4445795232
C -0.2156267651 1.0670049216 3.1611246736
H -0.0084628421 -0.2090824143 6.1845409325
H -0.2706364288 2.0310482098 2.6689675705
H -0.8761971019 1.7477530012 5.0034166024
H -1.0172466072 -1.4970459484 2.7189304492
C -1.8692835934 -0.9906728886 5.3854980940
O -2.3137617775 -1.8295601774 4.6314873930
C -2.7725750601 -0.4372922023 6.5415865175
N -2.0491820185 0.5730629991 7.3105364378
N -3.9616643590 0.1408006294 5.8992739628
N -3.0567686320 -1.6124128630 7.3391960700
H -2.7085997441 1.1583329483 7.8205094936
H -1.4584898712 0.1186821008 8.0078705794
H -4.7196921991 0.2010721303 6.5793513528
H -3.7640306935 1.0891059627 5.5762598351
H -3.5458449185 -2.3190788808 6.7937193087
H -3.6081877847 -1.3820867362 8.1644700317
C -1.3231367326 -5.0826205217 -0.2014017818
O -1.3779250909 -6.0447936678 0.5300653060
C -1.7883919386 -5.1085225073 -1.6896411241
N -2.7344666339 -3.9812180355 -1.8369674484
N -0.6003880679 -4.7845565342 -2.4846534404
N -2.2788869806 -6.4384909088 -1.9646066883
H -2.7207092032 -3.6176592853 -2.7896111814
H -3.6777099085 -4.3107715761 -1.6438658980
H -0.8535739385 -4.5109534972 -3.4396255617
H -0.0709232712 -5.6514759279 -2.5708970799
H -2.7087545170 -6.8819799355 -1.1579099014
H -2.9006194116 -6.4660954740 -2.7672774731
O -1.6418613765 0.6533656929 -0.0621459877
C -2.0888645951 0.9793273757 -1.4098442011
S -3.8662147093 0.5142276878 -1.5543463306
C -3.6942588501 -0.5414377245 -0.0509450699
C -2.7568804421 0.2632131267 0.8259047034
H -3.2161999354 1.1692247195 1.2149803289
H -2.3250551297 -0.3134797251 1.6354630463
H -3.2244543754 -1.4926530528 -0.3311584083
H -1.9878244790 2.0581682528 -1.5567604507
O 0.1749391058 0.3158286389 -1.9382859012
C -1.2174355633 0.2076396992 -2.3985627648
S -1.4151684411 0.8594141080 -4.0821259286
C -0.2910763830 -0.3705718804 -4.8646544677
C 0.9978111249 -0.4687273158 -4.0899165221
C 1.1668111899 -0.1450872176 -2.8069101777
H -0.0657317375 0.0328392704 -5.8542234628
H 2.1280552847 -0.1647765800 -2.3073893994
H 1.8701736407 -0.8115087982 -4.6375434223
H -1.4772608192 -0.8505440507 -2.4112328009
C -0.9191513779 -1.7770374826 -5.0149514609
O -1.7610532412 -2.1839560687 -4.2426759525
C -0.4330280089 -2.6918379051 -6.1912089686
N 0.7067226364 -2.0763542210 -6.8702639037
N -0.0690223461 -3.9874218353 -5.6104755775
N -1.5954691509 -2.7502597759 -7.0569041890
H 1.2479071043 -2.7885478374 -7.3565031958
H 0.3831130554 -1.4148265502 -7.5763431065
H -0.0580517607 -4.6981272992 -6.3421631988
H 0.8684605511 -3.9473147604 -5.2080139147
H -2.3784555035 -3.2024201757 -6.5884150941
H -1.3911773605 -3.2485974197 -7.9221127338
C -5.0739834516 -0.9168890624 0.5052123731
O -6.0450352777 -0.8943999999 -0.2158772944
C -5.1159315298 -1.4112030202 1.9833737628
N -4.0479002039 -2.4279892553 2.1061356749
N -4.7109501038 -0.2608784441 2.7949704534
N -6.4714080173 -1.8262928507 2.2611124682
H -3.7017779883 -2.4711466660 3.0646627003
H -4.4344566925 -3.3418562844 1.8786018443
H -4.4677417097 -0.5437345326 3.7507159318
H -5.5387931515 0.3275698491 2.8851694318
H -6.9462770129 -2.2105929319 1.4492690014
H -6.5289516116 -2.4644819739 3.0491627110
