112
# extracted from Terachem optimization
Mn -0.1272227193 0.0683469618 -0.2921126527
O 0.0644435809 2.2547988591 -0.3135141313
C 1.3544797855 2.6944404227 0.1957842439
S 1.5430363041 4.4647645545 -0.2014073635
C 0.4862797395 4.2031209544 -1.6830592699
C -0.5886940447 3.2320455071 -1.2058690421
H -1.3678581673 3.7340840614 -0.6324931101
H -1.0203975386 2.6786717258 -2.0394725146
H 1.0601671711 3.7440768713 -2.4964592389
H 1.3419956907 2.5623278611 1.2805733567
O 2.0102988403 0.4113587057 -0.2944255200
C 2.4412849415 1.8098458790 -0.4296229000
S 4.0384584982 2.0931771416 0.4020055110
C 4.9827040562 0.8908597283 -0.6368613013
C 4.2498736225 -0.4044483141 -0.7716080971
C 2.9409007564 -0.5861495915 -0.5991770575
H 5.9297189532 0.7610593261 -0.1056915832
H 2.4599354230 -1.5552112405 -0.6495662733
H 4.8372323554 -1.2870784358 -1.0107518269
H 2.5451925903 1.9989998104 -1.5021707156
C 5.2455995985 1.6080700184 -1.9727795733
O 4.4607952501 1.5720582441 -2.8960724529
C 6.5892390943 2.3942336219 -2.0706522623
N 6.4348972781 3.4875381197 -2.9680956144
O 7.0367922558 2.8135038555 -0.8090004574
H 7.3226717226 1.6304645922 -2.3992144370
H 7.3073992510 3.9227449344 -3.2543286719
H 5.8105254206 3.3079345596 -3.7489900590
H 6.7066524973 3.7215048884 -0.6703285836
C -0.0185853085 5.5649175888 -2.1953305483
O 0.4190572006 6.5981433130 -1.7475731052
C -1.1393529780 5.5334741782 -3.2540773241
N -0.9501392960 4.4340058586 -4.1810166626
O -2.3378697769 5.2440792899 -2.5411991395
H -1.1904017145 6.5341958339 -3.7081777141
H -1.8171998533 4.3165160629 -4.7057632838
H -0.2283506569 4.6726794752 -4.8615483780
H -2.7342863928 6.0844586346 -2.2567034218
O 0.2907455180 -1.9542267387 0.5437407092
C 0.8834809020 -1.9992820321 1.8690973968
S 0.7457473061 -3.7126049065 2.5052938631
C -0.6806988230 -3.9774253376 1.3731579934
C -0.2532784615 -3.2462943619 0.1064419108
H 0.5254391817 -3.7850494946 -0.4350373678
H -1.0905721139 -3.0297705467 -0.5550795409
H -1.5888764429 -3.5100160512 1.7729340658
H 1.9403641893 -1.7316513159 1.7782518246
O -0.1481403956 0.1957198780 1.9601482734
C 0.1547413260 -0.9823793759 2.7577985337
S 1.2255452623 -0.5570540895 4.1772473128
C -0.0076750479 0.5529086585 4.9836053063
C -0.7235100246 1.4078497216 3.9854924278
C -0.7347916192 1.2502392211 2.6609147055
H 0.5911727340 1.1702791536 5.6610085553
H -1.1976679537 1.9533919661 1.9804661744
H -1.2539999770 2.2726650677 4.3752571418
H -0.8007425258 -1.3701050871 3.1261453364
C -0.9170090654 -0.3574629166 5.8351156328
O -1.9492026508 -0.8361649072 5.4272403162
C -0.4163464199 -0.6256312834 7.2947273037
N -0.8675902138 -1.9026437190 7.7231981109
O 0.9757492280 -0.5032884535 7.3990764671
H -0.8281586183 0.2260729818 7.8728156939
H -0.7586458156 -2.0818956818 8.7174219740
H -1.7769093636 -2.1790387633 7.3650306894
H 1.3558632367 -1.3950058343 7.2830049391
C -0.9545333954 -5.4809635860 1.2246130868
O -0.3900345240 -6.2920969092 1.9202075706
C -1.9366399815 -5.8994657139 0.1119163006
N -3.1025843548 -5.0272193821 0.0794488372
O -1.2611605590 -5.6946337017 -1.1225233141
H -2.1613499665 -6.9654340966 0.2618936868
H -3.5922045671 -5.2058028507 -0.7986828843
H -3.7462657647 -5.2998791768 0.8231506728
H -0.7699954862 -6.5041207607 -1.3402337353
O -2.0573264152 -0.2500087901 -0.4110979766
C -2.6512085137 -0.1353396785 -1.7344501535
S -4.2683069251 -1.0258708739 -1.6871976225
C -4.0341187912 -1.4355314828 0.1049357966
C -3.1019900295 -0.3526219439 0.6208463448
H -3.5906925907 0.6179850683 0.7172483362
H -2.5926154590 -0.6209400883 1.5410850636
H -3.5516968355 -2.4183248169 0.1942390292
H -2.8231067084 0.9265252445 -1.9414900642
O -0.3153203983 -0.2324557851 -2.3262414128
C -1.6553620932 -0.7201626004 -2.7269170853
S -2.0997899383 -0.1971003198 -4.4077300064
C -0.7045582638 -1.0959769070 -5.2273935937
C 0.5817179925 -0.8405138215 -4.5084778085
C 0.7266077542 -0.4457301616 -3.2454864546
H -0.6806128866 -0.6837931347 -6.2396390144
H 1.6842590698 -0.2232108537 -2.7942273657
H 1.4990779859 -0.9681634500 -5.0775412862
H -1.6125202755 -1.8113731005 -2.6713402507
C -1.1115498969 -2.5808464715 -5.2938967244
O -0.9001084418 -3.3501529028 -4.3816205436
C -1.8082610911 -3.0381827086 -6.6056937270
N -2.6872938783 -4.1243292765 -6.3228213517
O -2.4806801654 -1.9719940641 -7.2310490873
H -0.9716110761 -3.2916707861 -7.2869863699
H -2.9695172344 -4.6509570645 -7.1447557159
H -2.3626958951 -4.7293369931 -5.5737723843
H -3.4106994043 -2.0156803397 -6.9392070396
C -5.4017453185 -1.5635582318 0.7938286833
O -6.4073870302 -1.7501810819 0.1495817453
C -5.4188055869 -1.4337191512 2.3310679355
N -4.3055495820 -2.1566702829 2.9320446692
O -5.1909074300 -0.0603922781 2.6246595667
H -6.4154895392 -1.7470809778 2.6742457309
H -4.1792547170 -1.7969801705 3.8790910954
H -4.5478995153 -3.1430540183 3.0237853856
H -6.0477714152 0.3979466066 2.6305895176
