118
# extracted from Terachem optimization
Mn -0.0308253256 -0.1069121755 -0.0924655806
O -0.0817203017 1.9844862289 -0.1542811840
C 0.8961099015 2.5809677018 0.7527165120
S 0.8308433453 4.3916580176 0.4766890318
C 0.1686363015 4.0813551395 -1.1622168839
C -0.2321668803 2.8201594760 -1.3007706834
H -0.6471850407 2.3167132971 -2.1598345371
H 0.5745203966 2.3414273759 1.7655783083
O 2.0047139338 0.5309896793 0.1939259351
C 2.2606124392 1.9534973653 0.4534980567
S 3.3772924899 2.2031401152 1.8518605037
C 4.8493669484 1.3678170881 1.0860885748
C 4.4039181367 0.1348337187 0.3477713517
C 3.1673091844 -0.2289195855 0.0047307461
H 5.4178114246 1.0166829353 1.9557733402
H 2.9329137640 -1.1741382899 -0.4702334053
H 5.1814887572 -0.5806833958 0.0934566928
H 2.6883847342 2.3528082861 -0.4709270468
C 5.7433085547 2.3401524563 0.2761618997
C 6.8747372813 1.5941775091 -0.4687603772
C 6.3476260999 3.4426102238 1.1231682630
C 6.5467825626 3.4500807050 2.4415071241
H 5.1062549145 2.8125295717 -0.4869963597
H 7.5272207239 2.3152043547 -0.9703494188
H 7.4969161127 1.0246918011 0.2308652411
H 6.4871232323 0.9126437392 -1.2338340059
H 6.6964429923 4.2963013901 0.5425474629
H 7.0370100591 4.2894675446 2.9250339086
H 6.2478342336 2.6403810952 3.1036143961
C 0.1413941303 5.1572533431 -2.2186873333
C 1.5745519303 5.5611150741 -2.6355488997
C -0.6727451360 6.3774796755 -1.8214342202
C -1.5744900940 6.4584259396 -0.8431473107
H -0.3398492344 4.7074999931 -3.1011125906
H 1.5304499121 6.2925371806 -3.4484147935
H 2.1190162411 6.0168766749 -1.8026740316
H 2.1402263990 4.6931230024 -2.9902714919
H -0.4820302534 7.2527682781 -2.4410030013
H -2.1105811362 7.3835822895 -0.6551709929
H -1.8215720301 5.6194474028 -0.1976597623
O 0.4614506395 -2.0877249007 0.1455841179
C 0.9117954541 -2.3197069684 1.5229954346
S 1.0012573952 -4.1404489848 1.7420125328
C -0.1158949395 -4.3446533864 0.3540466077
C -0.2767873879 -3.2124191074 -0.3243413881
H -0.8649277956 -3.0080178954 -1.2049136667
H 1.9036248496 -1.8738922271 1.6050090850
O -0.2759955809 -0.2726728077 1.9637464117
C -0.0590071165 -1.6338443207 2.4846524590
S 0.6273516262 -1.5965186441 4.1561914303
C -0.8437060778 -0.7864488350 4.9555222664
C -1.4103508991 0.2695801624 4.0453910503
C -1.1352824286 0.5019226765 2.7616077349
H -0.4025622787 -0.2542715411 5.8067533841
H -1.5488087691 1.3298829001 2.1981757639
H -2.1067886265 0.9698106452 4.4991058061
H -1.0392437540 -2.1211226832 2.4701138770
C -1.8724820660 -1.8120013591 5.4958764979
C -3.1598172938 -1.1236134049 6.0066182819
C -1.3134931668 -2.6988385819 6.5911387108
C -0.2533372218 -2.4744445050 7.3677808566
H -2.1593589216 -2.4609083983 4.6537578165
H -3.8268395724 -1.8684051409 6.4510364353
H -2.9301328008 -0.3884789470 6.7860839320
H -3.7105439795 -0.6256850101 5.2012504979
H -1.9052761140 -3.5965881111 6.7674057115
H 0.0185966525 -3.1727645242 8.1532781836
H 0.3894270853 -1.6016867486 7.2769906934
C -0.7713063317 -5.6715987597 0.0628599538
C -1.7169509721 -6.0899306348 1.2116696179
C 0.2189215005 -6.7799851111 -0.2567915677
C 1.5014857655 -6.6441749488 -0.5923958356
H -1.3944643878 -5.5153243163 -0.8317451223
H -2.2258009869 -7.0230764717 0.9510434233
H -1.1652177302 -6.2564586879 2.1421279106
H -2.4813129465 -5.3265919032 1.3924461971
H -0.2154315641 -7.7779312218 -0.2141258573
H 2.1132346450 -7.5129848581 -0.8149983172
H 1.9946514775 -5.6781231426 -0.6630146625
O -2.0176189837 -0.5317628488 -0.6491913217
C -2.4222478941 -0.1078096624 -1.9797310493
S -3.9966320208 -0.9819220133 -2.3492007698
C -4.2775309128 -1.1194018870 -0.5809454044
C -3.1745765240 -0.8487031440 0.1143474012
H -3.0149525773 -0.8520399055 1.1821725730
H -2.5951305730 0.9742489287 -1.9407577747
O -0.0434482945 -0.1540548720 -2.2602819343
C -1.3012277190 -0.4591326674 -2.9472125103
S -1.5079283237 0.4888521508 -4.4759588285
C -0.0560363997 -0.2592194024 -5.3631589626
C 1.0993133181 -0.3747975917 -4.4058195656
C 1.0917573682 -0.2911748097 -3.0758066724
H 0.2161446319 0.5129680730 -6.0921317000
H 1.9862828048 -0.3066046856 -2.4699503556
H 2.0826447719 -0.4956487896 -4.8522565689
H -1.2789268860 -1.5328414984 -3.1563503133
C -0.4184720116 -1.5559811959 -6.1292677011
C 0.8373705733 -2.2294574706 -6.7295378012
C -1.4435737050 -1.3438791504 -7.2251912990
C -1.7558826112 -0.2074839350 -7.8486432245
H -0.8459600455 -2.2590416457 -5.3979249785
H 0.5449080289 -3.1091064737 -7.3109374711
H 1.3589267882 -1.5487010845 -7.4117766181
H 1.5373822621 -2.5626902055 -5.9559246892
H -1.9279757010 -2.2638350721 -7.5514924171
H -2.4810069646 -0.1971945950 -8.6565362889
H -1.3166573454 0.7572543300 -7.6043113747
C -5.6193237831 -1.5346483791 -0.0312217054
C -6.1294955834 -2.8205718598 -0.7208147406
C -6.6693825228 -0.4365709114 -0.0879478412
C -6.4775636646 0.8501038751 -0.3719239190
H -5.4532993357 -1.7798264718 1.0294246271
H -7.0627305967 -3.1470354121 -0.2524011346
H -6.3386033061 -2.6479610476 -1.7825341179
H -5.4023055102 -3.6341649063 -0.6354611905
H -7.6741155881 -0.7852794091 0.1487487109
H -7.3056165617 1.5519258907 -0.3750607290
H -5.4991844416 1.2574691045 -0.6145236681
