118
# extracted from Terachem optimization
Mn 0.3625343200 0.1061493011 0.0733455380
O 0.6367832015 2.2812988262 0.0780452844
C 2.0129255258 2.6754260527 0.3894533771
O 2.1231789121 3.9967897830 0.0235360010
C 1.2955680048 4.2064059436 -1.1266049757
C 0.1120129001 3.2455223656 -0.9021365090
H -0.7555716530 3.7224483669 -0.4431905883
H -0.1681416633 2.7158499633 -1.8088185166
H 1.8318677578 3.9333585728 -2.0451499808
H 2.1554715342 2.5788529894 1.4696525395
O 2.5585584509 0.3884400212 0.0001647419
C 2.9658959581 1.7415802344 -0.3728877375
S 4.6938529682 2.1004421331 0.0504365350
C 5.3936622703 0.7325108192 -0.9877387766
C 4.6756790818 -0.5532826019 -0.7370400582
C 3.4221628715 -0.6732456017 -0.3069668446
H 6.4371454661 0.6661236858 -0.6743256727
H 2.9270035485 -1.6201381506 -0.1285743589
H 5.2176583154 -1.4701440999 -0.9516593672
H 2.8381982121 1.8169864122 -1.4553176087
C 5.3296441256 1.1535856442 -2.4722615580
O 4.2700483588 1.1966778451 -3.0720655032
C 6.6822524035 1.4089900420 -3.1554038547
N 7.4569221666 2.3721289866 -2.3844662234
N 7.3256631747 0.0989887312 -3.1461517479
H 6.4527263504 1.6955778324 -4.1925645839
H 8.3733033708 2.4984311222 -2.8140874880
H 7.0089596657 3.2883494533 -2.3729964061
H 7.6722682442 -0.1762118763 -4.0588105986
H 8.0849067458 0.0714437616 -2.4705492951
C 0.9659589520 5.7094054271 -1.2103509755
O 1.5479392663 6.5081088287 -0.5182678203
C -0.1137440197 6.1274320967 -2.2227713207
N 0.2843017576 7.3889294879 -2.8132410687
N -0.3209128308 5.0531129840 -3.1974434236
H -1.0458042634 6.1780365446 -1.6246772616
H -0.5188222275 7.9088202127 -3.1586883383
H 0.7596880497 7.9661596031 -2.1207371382
H -1.2393582949 5.1512557092 -3.6270843187
H 0.3506174072 5.1944565960 -3.9549939621
O 0.4386229263 -2.0717205481 0.3806184550
C 0.6408685250 -2.5055737673 1.7748596074
O 0.1120976751 -3.7812622426 1.8670924273
C -0.8990230997 -3.8990441250 0.8513211924
C -0.2278129937 -3.1835550123 -0.3105125982
H 0.5397493803 -3.7985664272 -0.7877104845
H -0.9208277217 -2.7946760066 -1.0474909776
H -1.8212678215 -3.3824743732 1.1433387643
H 1.7162894260 -2.5330602754 1.9776736397
O 0.2468420709 -0.1762657798 2.2659279357
C -0.0845171497 -1.5236055478 2.7063571269
S 0.3976699862 -1.8182775922 4.4356929224
C -0.7133065327 -0.5026323938 5.1249069728
C -0.5976279319 0.7660960338 4.3415505803
C -0.1667749475 0.8819686439 3.0877008568
H -0.3523693716 -0.3584099467 6.1452473242
H -0.0710737682 1.8266353945 2.5652137404
H -0.9038507632 1.6790518621 4.8450736540
H -1.1671428542 -1.6386475756 2.6231605722
C -2.1570787566 -1.0505957441 5.1735946759
O -2.8144934917 -1.1996284630 4.1578638646
C -2.7236033732 -1.3024636187 6.5802618634
N -1.8013827658 -2.1287316238 7.3455727955
N -2.8142473565 0.0355638941 7.1548650825
H -3.7353844043 -1.7122802416 6.4394078678
H -2.1550416502 -2.2546192945 8.2937971853
H -1.7046538530 -3.0586344048 6.9386183138
H -3.7368792712 0.2521958210 7.5157592204
H -2.1187336667 0.1704613429 7.8837976506
C -1.2042159090 -5.3819226196 0.5981460333
O -0.4217248780 -6.2544711528 0.8867816918
C -2.5796602255 -5.6619185460 -0.0398781385
N -3.5429848707 -5.7508780844 1.0695735387
N -2.9579039025 -4.5613251300 -0.9235092616
H -2.4666181167 -6.6107532537 -0.5876726027
H -4.4179613744 -6.1312985537 0.7060556751
H -3.2079614502 -6.4307892477 1.7536118987
H -2.8524105847 -4.8134290843 -1.9025632880
H -3.9218479522 -4.2569483291 -0.7553643870
O -1.7787403441 0.3573333898 -0.1956058363
C -2.3056482849 0.4486804655 -1.5571072105
O -3.5821608077 -0.1040314975 -1.5294791364
C -3.7081647043 -0.8902302418 -0.3322871040
C -2.9038689109 -0.0526755978 0.6492892005
H -3.4473795297 0.8448026552 0.9594236483
H -2.5318618442 -0.5963560796 1.5115419020
H -3.2584998207 -1.8820354421 -0.4591767016
H -2.3741120199 1.5046985581 -1.8407971456
O -0.0056824146 0.0273194525 -2.1666825952
C -1.3806464724 -0.3304362392 -2.4983293132
S -1.7981464646 0.0302124021 -4.2300761860
C -0.5411220441 -1.1433454368 -4.9184095950
C 0.7862635530 -0.9241785875 -4.2625678719
C 0.9944703356 -0.3914958744 -3.0595503647
H -0.4880262333 -0.8871444232 -5.9786086522
H 1.9817556925 -0.1803348883 -2.6655924951
H 1.6668713509 -1.2126102670 -4.8291586310
H -1.4836671205 -1.4054771495 -2.3464340835
C -1.0534233590 -2.5967609856 -4.7897608800
O -1.2026448323 -3.1336412628 -3.7064992913
C -1.2660630209 -3.3442740539 -6.1166283995
N -2.1820888755 -2.5926028228 -6.9639866857
N 0.0631984050 -3.4003143279 -6.7154618708
H -1.5892392356 -4.3607991327 -5.8448018505
H -2.3079483090 -3.0791011042 -7.8514807221
H -3.1051884836 -2.5130450264 -6.5375999730
H 0.3387814339 -4.3406829524 -6.9772412211
H 0.1253837504 -2.7889308672 -7.5253619861
C -5.1879420169 -1.0451012303 0.0407955069
O -6.0281117737 -0.2621307186 -0.3333473989
C -5.5167839407 -2.2685111086 0.9247396589
N -5.8354010609 -3.3687642955 0.0003165559
N -4.3626438611 -2.6387989882 1.7383097190
H -6.3773128515 -1.9657853450 1.5424897632
H -6.2635055976 -4.1258198740 0.5353983957
H -6.5493815266 -3.0575995731 -0.6598768632
H -4.4628590195 -2.3527633294 2.7086202812
H -4.1782287127 -3.6444962907 1.6956615760
