94
# extracted from Terachem optimization
Mn 0.0883220620 -0.1689392949 -0.1495808063
O 0.1851703102 1.9532728755 -0.1794444380
C 1.1962556917 2.4482584309 0.7495702453
S 1.1927994867 4.2831309525 0.6255756292
C 0.4334085677 4.1280575778 -0.9620059997
C 0.0185666968 2.8854182592 -1.2369504697
H -0.4374209554 2.4970498883 -2.1367112239
H 0.8948790949 2.1217658926 1.7441910849
O 2.3051911874 0.4795797543 -0.0748010482
C 2.5546843835 1.8439788229 0.3423667651
S 3.6846661484 1.9590649092 1.7658110394
C 5.1077418978 1.0470297568 1.0366060941
C 4.6938141758 0.0423628138 0.0056565896
C 3.4634451839 -0.2259640009 -0.4301445260
H 5.5228920097 0.5034239614 1.8963982327
H 3.2331096601 -1.0187641531 -1.1310323539
H 5.5011290385 -0.5612352005 -0.4002997269
H 2.9682887290 2.3651699956 -0.5264952538
C 6.2443081500 2.0223917288 0.5832925863
N 7.3867082916 1.2693385393 0.1621744786
O 6.4697187871 2.8079251125 1.7354521523
H 5.8935418905 2.6226007666 -0.2666563413
H 7.9680644832 0.9422320603 0.9303129736
H 7.9451097247 1.6772682661 -0.5807144111
H 7.1242032823 3.5012598084 1.5409248741
C 0.2421089224 5.3647868615 -1.8211848585
N 0.2900577454 4.9947190752 -3.2114493389
O 1.2267443185 6.2753959045 -1.3511541471
H -0.7657934981 5.7562722687 -1.6201821899
H 1.2563417246 4.8656836300 -3.5082613989
H -0.1260704861 5.7107286571 -3.8032528873
H 0.9981936264 7.1784644683 -1.6287134730
O 0.5484168643 -2.1389225408 0.0428999767
C 1.0983675250 -2.4039586034 1.3854261680
S 1.1063437511 -4.2327743592 1.6389787526
C 0.1501159550 -4.4309328879 0.1599953157
C -0.0654313978 -3.3046778724 -0.5099347231
H -0.5723948056 -3.1515495949 -1.4484941530
H 2.1122080250 -1.9985679865 1.3860795680
O -0.0706916324 -0.3406147279 1.8875980681
C 0.2311190484 -1.6880608553 2.4218814698
S 1.1297039734 -1.5974006125 3.9886602940
C -0.1056148773 -0.6017119918 4.9382632417
C -0.9597289093 0.2650033703 4.0642337921
C -0.9122770785 0.4116345838 2.7415940778
H 0.5283944932 0.0622160692 5.5424569425
H -1.5298238062 1.1006949789 2.1787530091
H -1.6926790948 0.8632578026 4.5990499643
H -0.7393199194 -2.1807613545 2.5340254337
C -0.8946871075 -1.4635824121 5.9653716369
N -1.7639987817 -0.6046596001 6.7264571796
O 0.1314325832 -2.0949171848 6.7054701620
H -1.5198038038 -2.1922820978 5.4304521737
H -1.2504666631 -0.1107387080 7.4550107251
H -2.5431292089 -1.0981096749 7.1544477836
H -0.2511843808 -2.7610955520 7.3005823238
C -0.2487936516 -5.8272667282 -0.2758400457
N -1.3908060243 -5.7484877387 -1.1569617081
O -0.4271396075 -6.5495822604 0.9337095041
H 0.5876328179 -6.2439295069 -0.8550857490
H -2.2408926219 -5.6638667193 -0.6009011437
H -1.4777995798 -6.5912910338 -1.7216328771
H -0.3735477010 -7.5031249933 0.7535927074
O -2.3425671106 -0.1856841748 -0.2900152235
C -2.6916855397 0.4793865176 -1.5334247864
S -4.5104836787 0.2712598488 -1.8128757953
C -4.6300631358 -0.5985172495 -0.2953230135
C -3.4479111257 -0.7502677829 0.3268510788
H -3.2550942582 -1.2538929063 1.2627481063
H -2.4521581390 1.5396266337 -1.4025703198
O -0.4951069666 -0.3408887465 -2.1556542873
C -1.8621594493 -0.1385545129 -2.6647151425
S -1.9107071363 0.9703009849 -4.0968222529
C -0.7391260131 0.0386582816 -5.1922376799
C 0.2168858971 -0.8251240648 -4.4286832165
C 0.3520918675 -0.9513746282 -3.1116479910
H -0.1565823738 0.8425236676 -5.6635161608
H 1.1031783935 -1.5668772232 -2.6314637038
H 0.8950392087 -1.4010016536 -5.0527405743
H -2.2262157384 -1.1388928603 -2.9154349253
C -1.4714972357 -0.6815664086 -6.3577336114
N -0.4959720180 -1.3526347057 -7.1790294624
O -2.1746632297 0.3724066482 -6.9885055601
H -2.1528668469 -1.4410799529 -5.9495969573
H -0.0580127495 -0.6992895142 -7.8269038507
H -0.8942636418 -2.1176062035 -7.7175618350
H -2.7914543583 0.0100842842 -7.6460404462
C -5.9892934689 -1.0630481753 0.1887420174
N -5.8292836114 -2.2206400273 1.0297509058
O -6.7408547794 -1.2252754284 -1.0068813326
H -6.4163103991 -0.2601998773 0.8075880742
H -5.7052300146 -3.0545182568 0.4570852120
H -6.6441268274 -2.3672861638 1.6218620018
H -7.6914334036 -1.2254276770 -0.8034848654
