118
# extracted from Terachem optimization
Mn 0.1783419125 0.0723539809 -0.1110000928
O 0.4753594268 2.2920468463 -0.1125967184
C 1.8301634427 2.6510937353 0.2726284375
O 2.0184327926 3.9623076605 -0.1085379144
C 1.2188204974 4.2151865639 -1.2676921024
C -0.0013605157 3.2897819768 -1.0758099041
H -0.8590550062 3.7894543811 -0.6206894288
H -0.2875894002 2.7887510256 -1.9985040061
H 1.7584533694 3.9437445801 -2.1847443557
H 1.9062292247 2.5718668029 1.3614550758
O 2.3502989531 0.3376210970 -0.1184251502
C 2.8236272168 1.6872261692 -0.4037531061
S 4.4913713192 1.9952103614 0.2607497615
C 5.3136049036 0.6444269035 -0.6875775891
C 4.5204110745 -0.6216001010 -0.6502802471
C 3.2191754601 -0.7275675369 -0.3854794198
H 6.2821923572 0.5162906655 -0.1975942994
H 2.6864203454 -1.6694179054 -0.3352905378
H 5.0581589284 -1.5439582709 -0.8524481920
H 2.8301782977 1.8011212953 -1.4918611878
C 5.5567829871 1.1572595621 -2.1289666997
O 4.6688303367 1.2229267793 -2.9465062530
C 7.0515769760 1.5221595199 -2.4699470600
N 7.5529546570 2.4204554755 -1.4660687943
N 7.7544666458 0.2693510205 -2.4408500837
H 7.0170478073 1.9157125150 -3.4980729913
H 8.5571501269 2.5681945802 -1.5493128487
H 7.0839919037 3.3229553220 -1.4630575628
H 8.1093077686 -0.0644783252 -3.3291623570
H 8.4219762210 0.1627970121 -1.6836834479
C 0.9406486919 5.7300671234 -1.3223092059
O 1.4806664404 6.4914206300 -0.5612490412
C -0.0409328052 6.2292264327 -2.4071036751
N 0.4496937953 7.4906429047 -2.8906796796
N -0.2104917023 5.2229115655 -3.4506000075
H -1.0130994524 6.3068563495 -1.8811610091
H -0.2281940423 8.0473329863 -3.4021786973
H 0.9377291256 8.0384066387 -2.1850852323
H -1.1180004306 5.3127325480 -3.9033838031
H 0.4946961865 5.3750495808 -4.1734214118
O 0.2763433894 -2.1288037175 0.2278148894
C 0.5567685871 -2.5340468467 1.6059045288
O -0.0298480218 -3.7773519406 1.7879945659
C -1.0667566428 -3.9213707112 0.8008458543
C -0.4167658679 -3.2615123063 -0.4030652089
H 0.3327965534 -3.9053617461 -0.8712485116
H -1.1213622700 -2.8946365443 -1.1401202359
H -1.9764006138 -3.3842203939 1.0984306280
H 1.6411833442 -2.6170950107 1.7349936098
O 0.1632382915 -0.1619505433 2.0531282089
C -0.0546046070 -1.5064758654 2.5743730970
S 0.6707204102 -1.7085368197 4.2310572723
C -0.4144663035 -0.4430800177 5.0214647141
C -0.5137585701 0.7922169417 4.1855861734
C -0.2437567573 0.8902000624 2.8840014936
H 0.0647865700 -0.2284686403 5.9798635930
H -0.2901283879 1.8192311378 2.3287407242
H -0.8346537444 1.6995499861 4.6903156965
H -1.1347183571 -1.6571200137 2.6464484071
C -1.7960040495 -1.0899311687 5.2995853100
O -2.6012341289 -1.2895263821 4.4192268663
C -2.0977952915 -1.3933044694 6.8115355569
N -1.0048875381 -2.1457848895 7.3673761179
N -2.1988897056 -0.0976930055 7.4298456636
H -3.0797957352 -1.8922248445 6.8129551728
H -1.0852509649 -2.2444040395 8.3779370747
H -0.9058812496 -3.0701920165 6.9542872598
H -3.1156982249 0.1589734308 7.7764280953
H -1.4561368311 0.1258764114 8.0845154690
C -1.3921360960 -5.4138472048 0.6113042525
O -0.6047881782 -6.2753434245 0.9142335349
C -2.7808816061 -5.7053311140 0.0054513987
N -3.7446669897 -5.6952529077 1.1176649012
N -3.1309077425 -4.6581218466 -0.9532859298
H -2.6921235798 -6.6897075872 -0.4781761594
H -4.6176389305 -6.1128335131 0.7911107833
H -3.4122504752 -6.3083761719 1.8637962340
H -3.0745696742 -4.9957240157 -1.9105883662
H -4.0729102177 -4.2885899997 -0.7864845974
O -1.8260668700 0.3130433940 -0.2681008626
C -2.3907031431 0.4060279752 -1.6226761314
O -3.6639139897 -0.1340519445 -1.5589522504
C -3.7920424580 -0.9120257306 -0.3514309713
C -2.9311263342 -0.1119305171 0.6112821620
H -3.4422349507 0.7873042051 0.9644163884
H -2.5222477312 -0.6830040864 1.4378917096
H -3.4089838290 -1.9276406347 -0.4960383066
H -2.4549156588 1.4638028547 -1.8994732008
O -0.0887728850 -0.0628819361 -2.2085414331
C -1.4794084712 -0.3776613492 -2.5731373250
S -1.8537017141 0.0458317921 -4.2954200044
C -0.6226452477 -1.1379438277 -5.0064764193
C 0.6985189214 -0.9906069701 -4.3206497787
C 0.9093356441 -0.5091590738 -3.0967473339
H -0.5453014331 -0.8533815439 -6.0583618333
H 1.8934483705 -0.3769590927 -2.6648054453
H 1.5753588120 -1.3102192628 -4.8769603129
H -1.6081352191 -1.4528716200 -2.4443787023
C -1.1774457483 -2.5852568383 -4.9351553825
O -1.3565113066 -3.1514961619 -3.8750545312
C -1.3806442194 -3.2759730587 -6.3041210535
N -2.2194987245 -2.4445649967 -7.1443628026
N -0.0366322234 -3.3620608705 -6.8533171050
H -1.7676844351 -4.2829086949 -6.0840022793
H -2.2937528197 -2.8425598248 -8.0802562510
H -3.1656525030 -2.3612508548 -6.7752917485
H 0.2820072762 -4.3125667361 -7.0067330271
H 0.0775609614 -2.8071047595 -7.6968967367
C -5.2753472269 -0.9427578408 0.0755143685
O -5.9906652570 0.0102224353 -0.1111813023
C -5.7110061922 -2.2208611125 0.8164792364
N -5.9320550310 -3.2735737751 -0.1843899825
N -4.6233310360 -2.6167461872 1.7141250673
H -6.6210588356 -1.9504775940 1.3719358874
H -6.4217131855 -4.0483221263 0.2662608627
H -6.5681582114 -2.9339375482 -0.9077431505
H -4.8582998275 -2.4376015160 2.6868055837
H -4.3899368222 -3.6099807501 1.6085337655
