100
# extracted from Terachem optimization
Mn -0.0313540978 -0.0219246772 -0.0895996167
O 0.5782309974 1.9883677959 -0.0844953674
C 1.7171089254 2.1897854112 0.8011997307
S 2.2505942731 3.9290958309 0.5816560657
C 1.4363825413 3.9502218902 -1.0141299597
C 0.6445505785 2.8944469942 -1.1847501738
H 0.0476146952 2.6181599411 -2.0383051001
H 1.3600144527 2.0240869673 1.8175507964
O 2.1100628118 -0.0732148687 0.0850866525
C 2.8019092473 1.1764015542 0.4171380864
S 3.9705439327 0.9576805248 1.7807526230
C 5.0887989663 -0.2155472134 0.8746240869
C 4.2573435370 -1.2252769136 0.1321426875
C 2.9623543341 -1.1561161164 -0.1806235187
H 5.6021532054 -0.7420541858 1.6896863508
H 2.4211343998 -1.9499104355 -0.6804081644
H 4.7692914573 -2.1308847228 -0.1864866814
H 3.3200110004 1.4826198915 -0.4964714829
C 6.1406262012 0.4800942836 -0.0130322111
C 7.1563188357 1.3313433847 0.7652700952
O 7.9860057430 2.0715893374 -0.1082963370
H 6.6736650405 -0.3002330533 -0.5749464939
H 5.6503658079 1.1178861791 -0.7587695090
H 6.6292411535 2.0708036203 1.3763965112
H 7.7388428519 0.6949855332 1.4496927079
H 8.6904577871 1.4931203749 -0.4389955096
C 1.7192715023 5.0831206261 -1.9643665166
C 0.6201199876 5.3427185053 -2.9911050785
O 0.4378247845 4.1619620711 -3.7707630683
H 1.8727732637 6.0045630796 -1.3891143224
H 2.6653194314 4.8806835708 -2.4833737591
H -0.3112076911 5.6252720773 -2.4771900925
H 0.9311649884 6.1883679552 -3.6181243789
H -0.1249267224 4.3829010188 -4.5288569047
O -0.1189158805 -2.1024664765 0.1220208693
C 0.3149158752 -2.4807111491 1.4670587259
S -0.1457465899 -4.2457615246 1.7025910341
C -1.2862565933 -4.1187577602 0.3315762867
C -1.1387645191 -2.9815781397 -0.3389192410
H -1.6287748261 -2.6546476333 -1.2406888986
H 1.3981300594 -2.3576363768 1.4911152421
O -0.2930733563 -0.1938339044 1.9657617794
C -0.3537549372 -1.5647222437 2.4939597287
S 0.5007275245 -1.6860298783 4.0846427974
C -0.6705253913 -0.5700152320 4.9978923448
C -0.9954679251 0.6267683338 4.1460629635
C -0.8105422131 0.7821573906 2.8345638442
H -0.0655802319 -0.2204767357 5.8447515660
H -1.0446520772 1.6918268205 2.2944007500
H -1.4364503635 1.4780456334 4.6603124080
H -1.4166789274 -1.8019190497 2.6012054328
C -1.9254630920 -1.2875287260 5.5341565989
C -1.6421149732 -2.3544089004 6.6041029421
O -2.8131472532 -3.0888136168 6.9055985781
H -2.5977557387 -0.5237851071 5.9504146964
H -2.4711444376 -1.7639234085 4.7106839763
H -0.9178753987 -3.0812179318 6.2224060476
H -1.2014321884 -1.8895585505 7.4991733175
H -3.3378238221 -2.5922330061 7.5523610229
C -2.2008254885 -5.2573350764 -0.0326699853
C -1.5965877552 -6.1834411186 -1.0952670782
O -1.3652134418 -5.3990864336 -2.2591454287
H -2.4588931533 -5.8397768685 0.8577763730
H -3.1337254406 -4.8454581744 -0.4321482920
H -0.6651896573 -6.6376614210 -0.7249504928
H -2.3138908522 -6.9924355091 -1.2888868206
H -1.1484333519 -6.0000562951 -2.9886434527
O -2.0675089509 0.2641148868 -0.3977958747
C -2.4280164830 0.6574133830 -1.7518487585
S -4.2082686637 0.2394068541 -1.9631130115
C -4.3899815018 0.2680900495 -0.1826333169
C -3.2160775592 0.2877588234 0.4415372948
H -3.0076773900 0.3275694484 1.4989933394
H -2.2827504146 1.7414811293 -1.8220476637
O -0.1784870912 -0.0642231102 -2.2018347646
C -1.5396650146 -0.0822154859 -2.7427291387
S -1.6455551441 0.7190993666 -4.3644409727
C -0.5405020273 -0.4940516820 -5.2365110037
C 0.6649042430 -0.7657950927 -4.3786339247
C 0.8107684662 -0.5527239175 -3.0720324021
H -0.2025884299 0.0745905546 -6.1124162884
H 1.7355808490 -0.7099068630 -2.5344449210
H 1.5382597092 -1.1670670963 -4.8878063942
H -1.8216413435 -1.1354263106 -2.8204949153
C -1.2615951985 -1.7700106847 -5.7119686750
C -2.3346940673 -1.5297292310 -6.7858475975
O -3.0555860042 -2.7164386677 -7.0584576684
H -0.4984818286 -2.4553957363 -6.1075344813
H -1.7272713481 -2.2856979476 -4.8633431151
H -3.0703212217 -0.8049002257 -6.4222340538
H -1.8770183606 -1.1056432843 -7.6927662179
H -2.5566374268 -3.2464276053 -7.6989684832
C -5.7508568465 0.3188410336 0.4585611041
C -6.1438749275 1.7375192587 0.8869002257
O -5.1890521423 2.1667983859 1.8504323705
H -6.5086026057 -0.0758566815 -0.2263558318
H -5.7531098596 -0.3210607600 1.3475563474
H -6.1636643316 2.4075370471 0.0144545725
H -7.1569788852 1.7003086055 1.3101301321
H -5.4851503792 3.0176694283 2.2095519691
