130
# extracted from Terachem optimization
Mn 0.1707863607 0.0215019666 0.1509331476
O 0.4239822306 2.1141939005 0.0819482857
C 1.7655350543 2.4553453277 0.5535759436
S 2.0195836393 4.2192721419 0.1324368228
C 0.8068559409 4.0490967173 -1.1848316220
C 0.1046209598 2.9187308042 -1.0413678352
H -0.6726173934 2.5321484723 -1.6724034069
H 1.7693837346 2.3147228635 1.6346935040
O 2.2587655945 0.1614528273 0.1889545540
C 2.7685550355 1.5138665268 -0.1167013872
C 4.1753790450 1.6801398517 0.3778917858
C 5.0208543278 0.6294904130 0.4326723417
C 4.4896694851 -0.6878314156 0.0433266411
C 3.1730155287 -0.8826369071 -0.0509129475
H 4.5094935599 2.6884214609 0.5992388473
H 2.6659408879 -1.8188794473 -0.2463368733
H 5.1732209174 -1.5146662257 -0.1105110893
H 2.6925733382 1.6345863134 -1.2099591308
C 6.4282459002 0.7874264429 0.8868826872
C 6.7176474866 1.5393155819 1.9569577450
C 7.5248841311 0.0545255603 0.0964296990
O 7.3783901008 -1.3592113022 0.2664741477
C 7.4525503352 0.3119366006 -1.4087032014
O 8.7550566788 0.4745392394 0.6270788217
H 7.7433105824 1.7017940739 2.2648520909
H 5.9341818420 1.9965069948 2.5546853014
H 7.6030061339 -1.5415470381 1.1963943604
H 7.5932286133 1.3772716340 -1.6094665864
H 8.2438862583 -0.2553099221 -1.9102525361
H 6.4962407500 -0.0084438760 -1.8321296086
H 9.4597713944 0.0568874112 0.1041083375
C 0.6668692477 5.0981146298 -2.2049475130
C 1.6363909985 6.0022230743 -2.4140553522
C -0.6540479077 5.1542536892 -2.9934565089
O -1.0146968040 3.8428147511 -3.4558348929
C -1.8212935985 5.6461637726 -2.1372723652
O -0.4262192976 5.9889734252 -4.0966357310
H 1.5102859624 6.7802984707 -3.1563922455
H 2.5745110492 5.9846436476 -1.8668259043
H -0.3788061467 3.6272735017 -4.1612532922
H -1.6275607821 6.6673964834 -1.8007700045
H -2.7415692723 5.6284639479 -2.7318466543
H -1.9716141532 5.0099277715 -1.2613431635
H -1.2859414487 6.2113067977 -4.4914045665
O 0.1928093763 -2.0717037264 0.3961346903
C 0.5917942035 -2.4006491218 1.7689313749
S 0.2213308650 -4.1804530662 2.0151792190
C -0.9005873756 -4.1339546498 0.6128118058
C -0.7674108026 -2.9963061078 -0.0757939463
H -1.2799724618 -2.7057652957 -0.9732608571
H 1.6654619918 -2.2223749851 1.8379449212
O 0.1685202077 -0.1145990569 2.2323803229
C -0.1669443803 -1.4746864981 2.7122993787
C 0.1878894189 -1.6252235969 4.1616208696
C 0.0410045954 -0.5796989814 5.0010710300
C -0.3641630518 0.7081837656 4.4146770741
C -0.2673521343 0.9093012307 3.0987664439
H 0.4539298342 -2.6129864100 4.5228968426
H -0.4327910750 1.8395262618 2.5701989726
H -0.6806457462 1.5145902236 5.0655508753
H -1.2489333691 -1.5977134592 2.5443096976
C 0.2973879231 -0.7088482917 6.4599191380
C 1.4092641112 -1.3046373745 6.9088345875
C -0.7657135002 -0.1435352667 7.4154104279
O -0.8064693300 1.2831186203 7.3108483774
C -2.1781320349 -0.6337611778 7.0893917772
O -0.3800899101 -0.5154562941 8.7136660716
H 1.5770470638 -1.4499178427 7.9691335847
H 2.1813004467 -1.6469515235 6.2254028304
H 0.0317549573 1.6008002430 7.6915881890
H -2.2243565809 -1.7206912625 7.1988057242
H -2.8864979300 -0.1732631005 7.7866247424
H -2.4854898675 -0.3642101299 6.0742245373
H -1.0716715917 -0.2107284670 9.3247805639
C -1.7614326238 -5.2873131701 0.3135044007
C -2.0683588795 -6.1889071584 1.2584460912
C -2.2434038537 -5.4513029955 -1.1407319912
O -2.7595788881 -4.2131693030 -1.6483227997
C -1.1035773868 -5.8525133717 -2.0780827268
O -3.2640193007 -6.4120681651 -1.1154796299
H -2.6842920948 -7.0476792510 1.0225381882
H -1.7266029479 -6.0896051060 2.2849255299
H -3.6123805259 -4.0744257278 -1.2001649945
H -0.6999296950 -6.8228320763 -1.7791368316
H -1.4836046041 -5.9175656691 -3.1036681163
H -0.2981068796 -5.1138172563 -2.0618510458
H -3.4479863737 -6.6818212708 -2.0308458932
O -1.8494049836 0.2231875122 -0.0157258479
C -2.4016936659 0.3702164009 -1.3567429236
S -4.0726577987 -0.4032104368 -1.3086749825
C -4.1031942000 -0.1592237858 0.4783596517
C -2.8824675593 0.1331104691 0.9424837830
H -2.5555006856 0.2725791313 1.9585988450
H -2.4998565449 1.4433428574 -1.5459124646
O -0.0913988104 -0.0703466783 -1.9084443226
C -1.4736421050 -0.2972442167 -2.3740590062
C -1.6608417223 0.2488166654 -3.7621411016
C -0.6448067768 0.1969365634 -4.6497487461
C 0.6376355187 -0.3453169612 -4.1663429142
C 0.8828405972 -0.4334208196 -2.8573589000
H -2.6426992961 0.6234838396 -4.0350475874
H 1.8219170573 -0.7068924232 -2.3945321606
H 1.4119821569 -0.6026546726 -4.8786444937
H -1.6208047482 -1.3859075012 -2.3539674950
C -0.7903185532 0.7241192254 -6.0349740164
C -1.4606742070 1.8629192403 -6.2616050872
C -0.1666479817 -0.0812676172 -7.1893678681
O 1.2523342722 -0.1723923870 -7.0203883993
C -0.6834246303 -1.5184615204 -7.2435592786
O -0.4502338829 0.6206556678 -8.3714296366
H -1.6108652452 2.2243179858 -7.2715914592
H -1.8668054467 2.4571683687 -5.4475766182
H 1.6015937957 0.7144410878 -7.2191329372
H -1.7614975568 -1.5188596057 -7.4244783005
H -0.1795650930 -2.0536984089 -8.0554964156
H -0.4789976464 -2.0569280822 -6.3136368699
H -0.1715689003 0.0672969855 -9.1202045178
C -5.3465802714 -0.3373763671 1.2353697441
C -6.4866693871 -0.7001419635 0.6268770661
C -5.3118073388 -0.0602891042 2.7527956267
O -4.1641996647 -0.6690972300 3.3580365867
C -5.2265285961 1.4355842192 3.0624270673
O -6.4780723409 -0.6305556252 3.2838231354
H -7.3937211882 -0.8462546939 1.1993426050
H -6.5519962459 -0.8550190830 -0.4468221291
H -4.3550120851 -1.6234292783 3.3771016850
H -6.1173444202 1.9409220172 2.6816982409
H -5.1631843713 1.5778401221 4.1469710424
H -4.3440115455 1.8950781385 2.6102522434
H -6.5937568581 -0.2976051581 4.1895831038
