112
# extracted from Terachem optimization
Mn 0.4301340138 0.0900696954 0.3482312449
O 1.0979608438 2.1270325796 0.5875051747
C 2.5148433079 2.4642889366 0.6121405649
S 2.7420245542 4.0439891355 -0.3240524401
C 0.9924427212 3.9627814879 -0.8919528499
C 0.2865284121 3.3068186496 0.2837960222
H 0.2586235323 3.9539193295 1.1635088697
H -0.7130948372 2.9483126759 0.0517014568
H 0.9001715328 3.3024784893 -1.7629921785
H 2.8107231517 2.6071626032 1.6554748884
O 2.6661351365 0.0608317599 0.4654438845
C 3.2889347887 1.3037481444 -0.0162774915
S 5.0382747177 1.4554636537 0.4470013168
C 5.5780692627 -0.0935318235 -0.4174237786
C 4.6808655006 -1.2252983556 -0.0353393836
C 3.4154829162 -1.1197220651 0.3646594260
H 6.5971862805 -0.2506182669 -0.0580488279
H 2.8159471160 -1.9592078801 0.6902474834
H 5.1006904302 -2.2275329984 -0.0521711708
H 3.1888501944 1.2957917743 -1.1052801094
C 5.6019032966 0.2373544941 -1.9175207566
O 4.6160190407 0.0799358375 -2.6173932259
C 6.9349529167 0.7798754892 -2.4694767293
N 6.6713449598 1.6855818119 -3.5536534518
O 7.6926777111 1.4029803167 -1.4510568016
H 7.5183627020 -0.1205332210 -2.7413421577
H 7.4628106289 1.7472214132 -4.1885955988
H 5.8473421952 1.3997283063 -4.0767589463
H 7.4649669393 2.3495181579 -1.5020087873
C 0.4747746553 5.3435191610 -1.3082054327
O 1.2042925909 6.3026340158 -1.3983583122
C -1.0408543819 5.4485941644 -1.5847051951
N -1.4950545005 4.3472530254 -2.4212269988
O -1.7208169222 5.2986906370 -0.3443220989
H -1.2185476272 6.4501301813 -2.0033560872
H -2.5076460752 4.4306008142 -2.5225693723
H -1.1006852267 4.4375634989 -3.3585845787
H -1.8318741093 6.1784882927 0.0520231116
O 0.2315338713 -1.9485780338 0.8694136354
C 0.1369008227 -2.4751964855 2.2217589412
S -0.6346309242 -4.1437490240 2.1222444585
C -1.2956055971 -3.7275037008 0.4546931050
C -0.1786859654 -2.9074856426 -0.1629936299
H 0.6847552666 -3.5144788272 -0.4344438144
H -0.4993079857 -2.3136964795 -1.0129441826
H -2.2048089920 -3.1221120152 0.5625833358
H 1.1524772411 -2.5736747075 2.6171825111
O -0.2874961405 -0.1312400099 2.6189625959
C -0.6616947290 -1.4722692573 3.0619219062
S -0.2699725327 -1.7525978128 4.8179411841
C -1.3897455270 -0.4269814733 5.4692316027
C -1.3434468852 0.7961135461 4.6071638871
C -0.8085829987 0.9061132213 3.3909747777
H -0.9684640649 -0.2074113451 6.4545336378
H -0.7281973122 1.8521840133 2.8691414161
H -1.7267867192 1.7136399298 5.0464376987
H -1.7383915861 -1.5732252556 2.8951995563
C -2.7648530757 -1.0782355743 5.6601355391
O -3.6436772825 -1.0327482137 4.8116747194
C -2.9769690125 -1.7945632527 7.0079465193
N -3.9124187385 -2.8735860153 6.8498225609
O -1.7516956553 -2.2561360445 7.5413285523
H -3.2989505105 -0.9911574350 7.6993902842
H -4.3500094656 -3.1137992136 7.7358165591
H -4.6390729783 -2.6321439356 6.1810299420
H -1.6717884899 -3.1809969331 7.2430274082
C -1.6981603119 -4.9858180174 -0.3273941726
O -1.8450179322 -6.0527428615 0.2173686036
C -1.9799847814 -4.7670410170 -1.8318953518
N -3.0570871843 -3.7705903123 -1.9550257943
O -0.7809883488 -4.2680913256 -2.3702365640
H -2.2313602174 -5.7484967590 -2.2614380919
H -3.1759964906 -3.5378280128 -2.9428344464
H -3.9416143568 -4.1983785185 -1.6733804991
H -0.9105606876 -3.9600643148 -3.2869332143
O -1.5414323715 0.5035038352 -0.3510526354
C -1.8642419299 0.8594491179 -1.7275416462
S -3.6666811787 0.5427116441 -1.9860998794
C -3.7338292266 -0.3918455655 -0.3998689517
C -2.7401690112 0.3496933454 0.4743408448
H -3.0975678277 1.3391532178 0.7604457439
H -2.4340250375 -0.2028384333 1.3540597755
H -3.3931822715 -1.4205905460 -0.5762455325
H -1.6629406590 1.9275328474 -1.8674759409
O 0.3550786177 -0.0444054694 -1.9879307602
C -0.9642782650 0.0082223978 -2.6213261743
S -0.8900001671 0.7399615441 -4.2850073058
C 0.1688930230 -0.6023340962 -5.0008936909
C 1.2524555683 -0.9932291653 -4.0443095634
C 1.3371231262 -0.6907434855 -2.7488055655
H 0.6061861514 -0.1345298674 -5.8871046315
H 2.2229841182 -0.8913420141 -2.1585229927
H 2.1108052495 -1.5098042276 -4.4655240947
H -1.3223538804 -1.0242036083 -2.6882104647
C -0.7897850619 -1.7097331844 -5.4534250876
O -1.0861613757 -2.6582658079 -4.7429691816
C -1.3522722588 -1.5547681394 -6.8798423402
N -2.6457685769 -2.1732296843 -6.9690503555
O -1.4117510246 -0.1933327714 -7.2623976758
H -0.5751495674 -1.9967202156 -7.5335235598
H -2.8635778817 -2.4398642373 -7.9257851381
H -2.6983398526 -2.9991469426 -6.3785569590
H -2.3237451015 0.0867998426 -7.0607936111
C -5.1617987011 -0.4890684885 0.1522817419
O -6.1296522367 -0.2896747658 -0.5413283078
C -5.2681814042 -0.9204753185 1.6315627500
N -4.5569305066 -2.1992145067 1.8020462092
O -4.6284911134 0.0995315550 2.3582946591
H -6.3392875304 -0.9734147680 1.8791214127
H -4.5469605006 -2.4355570119 2.7961250197
H -5.0958697361 -2.9437142765 1.3551501067
H -4.4711758559 -0.1910785600 3.2771375232
