17
# extracted from Terachem optimization
Co 0.0004735583 -0.0011806385 0.0026339829
C 0.3130631505 0.2614183539 1.9704624148
O 0.4817821820 0.3814351810 3.0770098878
C -0.3079312064 -0.2616495037 -1.9618998777
O -0.4740473040 -0.3768844341 -3.0693023994
O 0.2705791796 1.9398185275 -0.4040202571
H 1.2091373749 2.2069254440 -0.4393969388
H -0.2500859980 2.6827458652 -0.0449504138
O 2.2035185048 -0.0597074379 -0.3409518899
H 2.6462338182 -0.2533616752 -1.1873255867
H 2.8603276635 -0.2723949303 0.3468146513
O -0.2671820497 -1.9425672133 0.4027858343
H 0.2409186766 -2.6779404998 0.0117182970
H -1.2066652376 -2.2062223784 0.4464460609
O -2.2065021444 0.0558051730 0.3481409505
H -2.6522645472 0.2709704935 1.1879929702
H -2.8613557619 0.2527895082 -0.3461575289
