59
# extracted from Terachem optimization
Co 0.0121142981 -0.0092006104 -0.2293004802
O -0.0021372353 0.0014991778 2.0332339618
H 0.7671726203 -0.0526661242 2.6285425115
H -0.7911482939 0.0618629615 2.6014492087
C -0.1273380975 4.9587761670 -0.1895421788
C -0.4848080229 4.2571358928 -1.3434024765
C -0.4404320279 2.8678491123 -1.3326428421
N -0.0651299644 2.1612108953 -0.2389072190
C 0.2817651853 2.8469185813 0.8793936212
C 0.2573197159 4.2332976848 0.9430950003
H -0.1460834447 6.0449729411 -0.1725902402
H -0.7966770638 4.7744641250 -2.2449454345
H -0.7120748054 2.2979633917 -2.2103167458
H 0.5695577084 2.2508715156 1.7343090210
H 0.5356860010 4.7322502757 1.8655580880
C 4.9087757842 0.2486957145 0.5095748993
C 4.1521935995 -0.8165540098 1.0043524430
C 2.7848447991 -0.8462333274 0.7592907115
N 2.1485905895 0.1280176401 0.0619285832
C 2.8851833886 1.1635140873 -0.4087368666
C 4.2582377469 1.2525353420 -0.2121577702
H 5.9796945014 0.2961863622 0.6846597373
H 4.6105307533 -1.6231399856 1.5671446671
H 2.1767188158 -1.6704307234 1.1110385253
H 2.3504395968 1.9318752885 -0.9536744686
H 4.8021269986 2.1007208628 -0.6149887231
C 0.0790401822 -4.9884559286 -0.0957001492
C -0.3101021236 -4.2366499074 1.0175838841
C -0.3073513665 -2.8514212349 0.9301354569
N 0.0681962728 -2.1897936813 -0.1937109669
C 0.4545167583 -2.9240223769 -1.2656475396
C 0.4762595399 -4.3137564067 -1.2521425391
H 0.0703495880 -6.0737166999 -0.0621494203
H -0.6151151021 -4.7136893840 1.9433903984
H -0.6027998781 -2.2393514700 1.7701961527
H 0.7504460793 -2.3759310229 -2.1487687651
H 0.7985696560 -4.8513844381 -2.1382127862
C -4.9088144601 -0.1640204307 0.4528568444
C -4.1437773146 0.9033412606 0.9292156630
C -2.7710730558 0.9000363765 0.7139532126
N -2.1376725379 -0.1054333483 0.0608532415
C -2.8828825843 -1.1440760555 -0.3886008508
C -4.2611625107 -1.2035256718 -0.2186902344
H -5.9840865258 -0.1854224944 0.6028643647
H -4.5991088627 1.7363707705 1.4554995579
H -2.1560982724 1.7225845152 1.0556384726
H -2.3509552113 -1.9394009074 -0.8954632849
H -4.8106158012 -2.0562671680 -0.6041034470
C 0.0232316175 -0.0113984327 -5.1972253480
C 1.2229906935 -0.0448193196 -4.4824210566
C 1.1830198313 -0.0647682897 -3.0922126960
N 0.0178618264 -0.0445385329 -2.4015595879
C -1.1444372806 -0.0137770371 -3.0960525942
C -1.1792261227 0.0025299553 -4.4862070020
H 0.0247707617 0.0035136952 -6.2835204969
H 2.1832140696 -0.0577355046 -4.9884620648
H 2.0967616782 -0.1044314316 -2.5133620430
H -2.0598633541 0.0056004059 -2.5194304840
H -2.1375762629 0.0319871252 -4.9948436252
