45
# extracted from Terachem optimization
Co -0.0007049419 -0.0049736062 0.2054019587
C 0.0613514041 1.9209823399 0.1892734926
N 0.0954681206 3.0799402412 0.2220694159
C 0.1369591677 4.5097328089 0.2732489753
H 0.8843001598 4.8717015906 -0.4369228200
H 0.4026730921 4.8220724740 1.2863519770
H -0.8474041184 4.9041945316 0.0103517958
C 1.9281167113 -0.0555852062 0.0352689380
N 3.0775920416 -0.0620620789 -0.1225371821
C 4.4916566200 -0.0498209523 -0.3456528743
H 4.7656729371 -0.9241844141 -0.9404454278
H 5.0073050441 -0.0801337146 0.6171622685
H 4.7570715293 0.8643721122 -0.8821409443
C -0.0616866772 -1.9299648427 0.1900991007
N -0.0950602199 -3.0887263827 0.2273780043
C -0.1365522318 -4.5178713927 0.2862106915
H -0.8845941631 -4.8836929957 -0.4209562163
H -0.4012593882 -4.8249845844 1.3010574097
H 0.8472823044 -4.9139928073 0.0245280692
C -1.9293878808 0.0496679617 0.0312954462
N -3.0777724107 0.0623717172 -0.1340272808
C -4.4894485837 0.0593470771 -0.3722547345
H -4.6886463274 -0.4731774235 -1.3055351979
H -4.8408689420 1.0907861732 -0.4480531551
H -4.9918442280 -0.4446751870 0.4568697827
O -0.0048400610 -0.0040362362 -2.3538914456
C 0.6932934263 -0.8617713971 -3.1825664794
C 0.4501059722 -0.5610797914 -4.4811396068
C -0.4555278589 0.5554666831 -4.4814154621
C -0.7016703548 0.8545180798 -3.1830070012
H 1.2925719628 -1.6090248901 -2.6870671285
H 0.8571995745 -1.0684670217 -5.3446145970
H -1.3039664999 1.5997164777 -2.6880647448
H -0.8608586110 1.0637308685 -5.3452048293
C 0.0023490017 0.0128603380 5.2590632802
C 1.0979041332 0.4960452452 4.5433808852
C 1.0542121831 0.4676588449 3.1533869114
N 0.0020989366 -0.0058277124 2.4592530342
C -1.0489946925 -0.4722517411 3.1596454481
C -1.0921207387 -0.4825129290 4.5500588613
H 0.0008996344 0.0236533208 6.3442541547
H 1.9736544852 0.8900622779 5.0484608378
H 1.8894107834 0.8390425246 2.5682878162
H -1.8856662490 -0.8489309786 2.5798821635
H -1.9677283102 -0.8696668817 5.0607422451
