26
# extracted from Terachem optimization
Co -0.0004691159 0.0006946132 0.0977185438
C 0.0232109132 2.4230142763 -0.1528724428
O 0.0417279136 3.5167338559 -0.4304818503
C 1.9313541326 -0.0052313962 0.1510449750
O 3.0577784972 -0.0064489807 0.2092167397
C -0.0231040632 -2.4222038891 -0.1531821972
O -0.0407793914 -3.5161364751 -0.4298249360
C -1.9323099793 0.0060874060 0.1513331243
O -3.0587361464 0.0066679331 0.2099510248
C -0.0005395517 0.0007455013 -1.8700054671
N -0.0003142956 0.0003972958 -3.0271765368
C 0.0008360250 -0.0011071197 -4.4635276347
H -0.6095717696 -0.8379181304 -4.8125763589
H 1.0307603772 -0.1117056322 -4.8121279298
H -0.4188557230 0.9450996204 -4.8146454506
C -0.0001804235 0.0003608290 4.9044018994
C -0.1200790250 1.1934777481 4.1906554865
C -0.1155843395 1.1583929359 2.8027955759
N -0.0002482162 0.0004896532 2.1065812366
C 0.1152617867 -1.1574799430 2.8026741179
C 0.1198599808 -1.1926725643 4.1905365841
H -0.0003024248 0.0002995690 5.9903199382
H -0.2176695723 2.1493914981 4.6942035245
H -0.2090443391 2.0752129200 2.2366218551
H 0.2087193951 -2.0742793181 2.2364518491
H 0.2176884282 -2.1485991606 4.6940115323
