55
# extracted from Terachem optimization
Co 0.0418475917 0.0017309154 0.0093882856
O 0.0432389253 2.0678003154 -0.0441555820
C -1.0778107804 2.9117806477 0.0697104850
C -0.6837935892 4.1932658136 -0.0733203258
C 0.7421410963 4.1872457868 -0.2937773175
C 1.1531528223 2.9029438811 -0.2730019627
H -2.0133538505 2.4157489922 0.2604567735
H -1.3285247066 5.0609912200 -0.0258563687
H 2.0968439156 2.3986064552 -0.3885328451
H 1.3746660532 5.0511422436 -0.4466199293
O 2.1192595025 -0.0064445320 0.0111406772
C 2.9579764366 0.0357424026 1.1401781594
C 4.2434780778 -0.0414607331 0.7377102231
C 4.2448641904 -0.1350087081 -0.7007174805
C 2.9602627306 -0.1145451556 -1.1112463992
H 2.4511016040 0.1264001446 2.0852958259
H 5.1093328525 -0.0304094116 1.3853206083
H 2.4582025409 -0.1626326945 -2.0615213565
H 5.1116336017 -0.2073078753 -1.3432659736
O 0.0355092656 -2.0627857323 0.0786034655
C 1.1283135719 -2.9052042785 0.3563416107
C 0.7169792831 -4.1888538510 0.3202788524
C -0.6921728100 -4.1866602835 0.0117204230
C -1.0771766936 -2.9016977443 -0.1229185071
H 2.0622970352 -2.4063336061 0.5504021536
H 1.3394399324 -5.0563451852 0.4932652077
H -2.0021475486 -2.4005982126 -0.3512374323
H -1.3327490956 -5.0514077959 -0.0990885554
O -2.0381910099 0.0013274778 -0.0035162495
C -2.8919318887 0.0622662892 1.1132234922
C -4.1730679148 0.0131143219 0.6927929593
C -4.1558006304 -0.0889208610 -0.7450488347
C -2.8651927946 -0.0916159591 -1.1377752687
H -2.3995197271 0.1279286028 2.0684616817
H -5.0480761824 0.0457838149 1.3278788272
H -2.3496812995 -0.1398093286 -2.0806162390
H -5.0154618416 -0.1504147687 -1.3983401940
O 0.0415374230 0.0337794322 2.2536583927
C -0.2570977079 -1.0299004915 3.1139309257
C -0.4002420838 -0.5653895356 4.3743436151
C -0.1851766276 0.8588723923 4.3323480925
C 0.0764107700 1.1873556789 3.0484175253
H -0.3108185497 -2.0005519123 2.6494913875
H -0.6273525945 -1.1596754244 5.2489301436
H 0.3080403420 2.1010220060 2.5262978672
H -0.2206247425 1.5426938592 5.1690392794
O 0.0419138351 -0.0046863203 -2.2360366719
C 0.2020256665 -1.1277535454 -3.0579110440
C 0.1385826139 -0.7518194839 -4.3540317455
C -0.0728586998 0.6736170979 -4.3760380146
C -0.1247512006 1.0908976773 -3.0925090101
H 0.3435744169 -2.0620990086 -2.5406209898
H 0.2301331908 -1.4052902344 -5.2109808802
H -0.2594588222 2.0431391223 -2.6075212415
H -0.1702090587 1.3001657892 -5.2524855106
