29
# extracted from Terachem optimization
Co -0.0000009799 0.0000121440 -0.0000239484
C -0.0000084106 0.0000846805 1.9045438031
O -0.0000748892 0.0001309405 3.0288979127
C 0.0000064736 0.0000791914 -1.9045687682
O 0.0000686544 0.0001257625 -3.0289000229
C -0.0004241725 1.9410519433 -0.0002472329
N -0.0005166045 3.0947398683 -0.0005567614
C 0.0000635619 4.5371366570 -0.0001869127
H 0.8407696531 4.8812478968 -0.6092501693
H 0.1080045867 4.8796780194 1.0330870104
H -0.9474881429 4.8826035823 -0.4230555673
C 1.9410506021 0.0004046342 -0.0002170834
N 3.0947349911 0.0005250342 -0.0005021778
C 4.5371315840 0.0000273976 -0.0001368997
H 4.8812755678 -0.8406368735 -0.6092411142
H 4.8796765156 -0.1079516073 1.0331298443
H 4.8825365810 0.9476507895 -0.4228992205
C 0.0004287928 -1.9410460564 -0.0002350023
N 0.0005249817 -3.0947340323 -0.0005311421
C -0.0000658385 -4.5371268140 -0.0001931608
H -0.8408185542 -4.8811935067 -0.6092224041
H -0.1079913735 -4.8796796367 1.0330763149
H 0.9475257832 -4.8825702134 -0.4229938985
C -1.9410495599 -0.0002215349 0.0003033443
N -3.0947350979 -0.0002273679 0.0004265992
C -4.5371265378 0.0001460933 -0.0000431934
H -4.8806693007 -0.6093592474 -0.8408169282
H -4.8815817261 1.0324123799 -0.1076822791
H -4.8812471017 -0.4233111112 0.9480360340
