34
# extracted from Terachem optimization
Co -0.0036421788 0.0035806734 0.0064821432
O -0.0019897182 0.0064827167 2.2171831953
H 0.4951994873 0.6122202143 2.7898161118
H -0.5597261244 -0.5393823856 2.7941346996
C 0.0391941439 2.2016186374 0.0794593092
N 0.0360436634 3.3636650130 0.0844218600
C 0.0290714216 4.7945755398 0.0764396977
H 0.8626846995 5.1518565663 -0.5326787085
H 0.1344738734 5.1600525745 1.1007408593
H -0.9158375314 5.1448241701 -0.3458592400
C 2.1935942407 0.0305076315 0.0591488397
N 3.3555119484 0.0241674617 0.0543442623
C 4.7860281253 0.0107076224 0.0408424232
H 5.1299244721 -0.8247996349 -0.5735751465
H 5.1524792922 -0.1066012611 1.0634787708
H 5.1484689791 0.9524590287 -0.3779990484
C -0.0514108775 -2.1940195411 0.0625672537
N -0.0476468498 -3.3560071267 0.0609170554
C -0.0364009220 -4.7867185364 0.0520941448
H -0.8692044772 -5.1465960852 -0.5567440790
H -0.1406534375 -5.1515206282 1.0766868096
H 0.9093825965 -5.1346913737 -0.3701169022
C -2.2010425448 -0.0182848803 0.0706969174
N -3.3630236357 -0.0167476647 0.0718210908
C -4.7937890840 -0.0126589826 0.0613629676
H -5.1458245785 -0.6269050131 -0.7708094869
H -5.1480746251 1.0137852580 -0.0594562079
H -5.1604478930 -0.4224932777 1.0055223477
C 0.0228881382 -0.0194860668 -2.1936043139
N 0.0276578115 -0.0222540374 -3.3550470393
C 0.0289266828 -0.0232650011 -4.7854523274
H -0.5829492112 -0.8545702334 -5.1433198664
H 1.0551921636 -0.1364403173 -5.1428356618
H -0.3850590703 0.9229378696 -5.1419835847
