30
# extracted from Terachem optimization
Co -0.0107430479 0.0107331893 0.1568370778
C -0.0547524438 0.0360478281 -2.2759803225
O -0.0889153003 0.0556320595 -3.4046748064
O -0.0038617195 0.0079139906 2.3027938012
H 0.5968641039 0.5132814606 2.8751448712
H -0.5048289839 -0.5984613556 2.8730771524
C 0.0522224597 2.1880448079 0.0562552600
N 0.0525830669 3.3483272196 0.0178440077
C 0.0389905889 4.7797476697 -0.0201963669
H 0.8700034445 5.1297915963 -0.6372908296
H 0.1441331714 5.1609832054 0.9985814983
H -0.9094766741 5.1139571283 -0.4473664928
C 2.1765401026 0.0084943458 0.0825209024
N 3.3370617958 0.0056862436 0.0473721417
C 4.7682513518 0.0022255023 0.0012162745
H 5.1021083862 -0.8319000332 -0.6203275793
H 5.1565439167 -0.1116046818 1.0161765865
H 5.1141561057 0.9460544677 -0.4265069341
C -0.0353495435 -2.1807726994 0.0786945000
N -0.0296691942 -3.3412679165 0.0418264197
C -0.0163838775 -4.7723029502 -0.0024363024
H -0.8467594030 -5.1193204038 -0.6213214282
H -0.1222889020 -5.1600283258 1.0133983906
H 0.9312757352 -5.1065501784 -0.4305609646
C -2.1880832655 -0.0219524453 0.0801132650
N -3.3483154898 -0.0205415150 0.0408050016
C -4.7794844446 -0.0121240846 -0.0146980213
H -5.1040396511 -0.6206408526 -0.8625566322
H -5.1233276726 1.0174891654 -0.1406543073
H -5.1744546813 -0.4269433885 0.9162376606
