53
# extracted from Terachem optimization
Co -0.0839269014 -0.0210144982 -0.0762554299
C -0.3138610858 -0.2406510057 1.7961396873
O -0.4542115484 -0.3749319722 2.9133415023
C 0.1187888224 0.1724242344 -2.0045716457
N 0.2205444086 0.2560326497 -3.1584680180
C 0.3363420287 0.3387583365 -4.5833111886
H -0.1348484683 -0.5407959297 -5.0288478152
H 1.3937077552 0.3710908749 -4.8560074725
H -0.1648416036 1.2444385003 -4.9327859259
C 0.2895949292 5.0980333265 0.5427914725
C 0.8855806447 4.2272995218 1.4555269181
C 0.7472777286 2.8559565017 1.2598886590
N 0.0589905097 2.3211307240 0.2314914146
C -0.5113395900 3.1731795509 -0.6438665999
C -0.4209097535 4.5575244710 -0.5297119366
H 0.3741313686 6.1734927120 0.6645643809
H 1.4493271227 4.5982103568 2.3050446359
H 1.2149870307 2.1554045880 1.9459166988
H -1.0689950119 2.7229518197 -1.4598538401
H -0.9014550370 5.1947123320 -1.2649927024
C 4.7165795238 -0.2548047392 0.5111648677
C 3.8860629237 -1.2242914700 1.0728535117
C 2.5132251831 -1.1367072027 0.8727322441
N 1.9421625444 -0.1433692089 0.1564491838
C 2.7508653785 0.7933636950 -0.3856480069
C 4.1324143035 0.7694490481 -0.2345713005
H 5.7924329196 -0.2944744218 0.6521090478
H 4.2861822895 -2.0400570824 1.6650237909
H 1.8438380469 -1.8785532343 1.2897277930
H 2.2629796936 1.5837155572 -0.9409473156
H 4.7330432331 1.5468970675 -0.6947375788
C -0.0414255271 -5.1896646440 -0.4009659476
C -0.9365243114 -4.5439470961 0.4523383476
C -0.9660255113 -3.1522143755 0.4602145117
N -0.1647092674 -2.3895916231 -0.3110082322
C 0.6892599272 -3.0257962233 -1.1367676081
C 0.7819608204 -4.4125445639 -1.2172340521
H 0.0135841376 -6.2738613626 -0.4292527074
H -1.6001153352 -5.1044546182 1.1028780879
H -1.6619550334 -2.6235593249 1.1049842543
H 1.3285406394 -2.3949380502 -1.7473143770
H 1.4901109809 -4.8696369353 -1.9009536283
C -4.9024996775 0.2270231978 -0.4483995048
C -4.2066195454 1.1090666530 0.3776462660
C -2.8209410157 1.0231700644 0.4431764358
N -2.1121014694 0.1155682471 -0.2654311108
C -2.7900619404 -0.7365972484 -1.0650139878
C -4.1750183058 -0.7094676726 -1.1835838877
H -5.9852150564 0.2699968678 -0.5174567181
H -4.7235363219 1.8561300824 0.9702971429
H -2.2524074765 1.6972876122 1.0703405695
H -2.1948568038 -1.4619635834 -1.6041753711
H -4.6675106723 -1.4179318576 -1.8408771219
