40
# extracted from Terachem optimization
Co 0.0000609888 0.0000599630 0.0537372006
C 0.0086770987 1.9373238384 0.0578994324
N 0.0076887751 3.0923150190 0.0449619016
C 0.0064589350 4.5313976929 0.0083866586
H 0.8438194511 4.8643703210 -0.6101555861
H 0.1139538557 4.9059114961 1.0295524155
H -0.9407641686 4.8680863535 -0.4209356997
C 1.9370908312 0.0065404625 0.0547434621
N 3.0921270907 0.0065784137 0.0407079872
C 4.5311170518 0.0055977824 0.0068403498
H 4.8638325973 -0.8339286204 -0.6090895496
H 4.9030652730 -0.1032991327 1.0288323254
H 4.8705807544 0.9506464436 -0.4245830592
C -0.0086534942 -1.9371810453 0.0580203207
N -0.0077270915 -3.0923335778 0.0450151431
C -0.0065979504 -4.5313330969 0.0084458422
H -0.8439761522 -4.8642581582 -0.6101099104
H -0.1142509346 -4.9058106566 1.0296131886
H 0.9406653697 -4.8680803667 -0.4207612111
C -1.9370439742 -0.0064066644 0.0558003088
N -3.0919831041 -0.0063725129 0.0422282065
C -4.5310238922 -0.0051393067 0.0062783002
H -4.8576555337 -0.6126851986 -0.8417113762
H -4.8754329775 1.0258015559 -0.1086316247
H -4.9034860677 -0.4275455331 0.9430220557
C 0.0003809583 0.0003585995 1.9416144786
N 0.0004667167 0.0005272311 3.0957331451
C 0.0000685053 -0.0000792751 4.5360693119
H 0.6085242076 -0.8393281371 4.8827444899
H -1.0309868741 -0.1078788814 4.8824636185
H 0.4223325581 0.9462508063 4.8838098060
O -0.0002531295 -0.0000589849 -1.9795198853
C 0.7766747511 -0.8210912162 -2.8237337167
C 0.4945653528 -0.5239694276 -4.1071163633
C -0.4948426346 0.5240067516 -4.1071095363
C -0.7771184582 0.8210703275 -2.8237505961
H 1.4338418536 -1.5190507557 -2.3337097917
H 0.9342391156 -0.9921547753 -4.9782247238
H -1.4346352797 1.5187509627 -2.3337694897
H -0.9345143800 0.9921963109 -4.9782188793
