40
# extracted from Terachem optimization
Co 0.0001934964 0.0003160822 0.2381043460
C 0.0033907745 1.9305738206 0.1251455149
N 0.0043891629 3.0887960216 0.0671199365
C 0.0115745703 4.5187699336 0.0022098319
H 0.8460261311 4.8438807811 -0.6235101029
H 0.1250851942 4.9189801501 1.0125424502
H -0.9315018263 4.8623308508 -0.4293589681
C 1.9307150478 0.0039620525 0.1232383681
N 3.0888809535 0.0050794967 0.0644770964
C 4.5188982137 0.0093669385 -0.0002339138
H 4.8514318940 -0.8248818421 -0.6224361377
H 4.9198359863 -0.0982277717 1.0104669705
H 4.8544932523 0.9532115628 -0.4361197530
C -0.0032328578 -1.9300737136 0.1256168056
N -0.0044004349 -3.0882901463 0.0675540020
C -0.0118473594 -4.5182769800 0.0024365689
H -0.8462898821 -4.8431111699 -0.6234555072
H -0.1256416455 -4.9186013351 1.0126977463
H 0.9312790917 -4.8619282723 -0.4289764571
C -1.9304545687 -0.0032556829 0.1251865774
N -3.0885556754 -0.0043796754 0.0665094850
C -4.5185046689 -0.0096343526 -0.0016603615
H -4.8332952445 -0.6169233734 -0.8535942523
H -4.8739073155 1.0160909049 -0.1250257410
H -4.9166370551 -0.4315910844 0.9242111558
C 0.0014610891 0.0008497527 2.3988754017
N 0.0013342947 0.0007451910 3.5618804658
C 0.0000102050 -0.0005295370 4.9930826763
H 0.6069640892 -0.8356723449 5.3512296200
H -1.0269664066 -0.1096314590 5.3501363242
H 0.4188491467 0.9423923433 5.3530884783
O -0.0006614549 -0.0001259916 -2.3384336941
C 0.7623616135 -0.8007888517 -3.1669270239
C 0.4952869063 -0.5205572418 -4.4654933557
C -0.4959190133 0.5205758911 -4.4655750199
C -0.7634924694 0.8006312294 -3.1670653422
H 1.4210802412 -1.4956972621 -2.6706055805
H 0.9422486662 -0.9903909796 -5.3304460299
H -1.4226343643 1.4952559173 -2.6708967661
H -0.9425617652 0.9905650848 -5.3306068947
