38
# extracted from Terachem optimization
Co -0.0005536624 0.0018711316 0.1614361830
C -0.0034037271 0.0018122407 -2.4923044390
O -0.0008016169 0.0012202201 -3.6238323149
C 0.0176238657 1.9368726222 0.0093042078
N 0.0300032387 3.0880021099 -0.1362540734
C 0.0428547216 4.5091356911 -0.3166992955
H 0.8608702129 4.7765973126 -0.9898272251
H 0.1889836212 4.9878275711 0.6545677995
H -0.9106127822 4.8229820649 -0.7482705366
C 1.9285132321 -0.0075905058 0.1189158711
N 3.0873572269 -0.0097123753 0.0825874604
C 4.5182916749 -0.0089872016 0.0323758728
H 4.8530500939 -0.8336392844 -0.6015647242
H 4.9091760285 -0.1333329669 1.0449712514
H 4.8591554769 0.9412901099 -0.3853589528
C -0.0186101302 -1.9329985883 0.0090019895
N -0.0306020409 -3.0841224885 -0.1363996233
C -0.0430813494 -4.5053681221 -0.3160493059
H -0.8609807893 -4.7735508014 -0.9890346810
H -0.1892004879 -4.9834435642 0.6555070289
H 0.9105261502 -4.8193327907 -0.7472213346
C -1.9295819283 0.0099615190 0.1212262433
N -3.0885385851 0.0090597283 0.0828787227
C -4.5191246061 0.0024109151 0.0257746958
H -4.8371864560 -0.6238214459 -0.8114034509
H -4.8754883690 1.0248133055 -0.1201922440
H -4.9107601922 -0.3989596494 0.9633912016
C -0.0004435030 -0.0001309159 5.2589613040
C -0.1738552784 1.1855091197 4.5455443586
C -0.1676476660 1.1385681857 3.1549411777
N 0.0017013365 0.0009207766 2.4530688204
C 0.1708049644 -1.1371755316 3.1543296790
C 0.1749679287 -1.1851218279 4.5449149881
H -0.0015451401 -0.0005421337 6.3443925198
H -0.3120408465 2.1346232387 5.0527303190
H -0.3044353128 2.0450035900 2.5753311120
H 0.3099412892 -2.0430313904 2.5743273480
H 0.3140836345 -2.1343383646 5.0516707641
