42
# extracted from Terachem optimization
Co -0.0002406409 0.0006284345 -0.0918560296
C 0.0061301064 1.9377395174 -0.0726281793
N 0.0079058400 3.0989245389 -0.0781280905
C 0.0102014322 4.5305093199 -0.0676572727
H 0.8426255069 4.8931168950 -0.6751495765
H 0.1255696928 4.8785174492 0.9617747000
H -0.9348108852 4.8946520405 -0.4775511684
C 1.9281337423 -0.0025708881 -0.0283524467
N 3.0881068636 -0.0020142748 -0.0032527799
C 4.5186485615 -0.0015524719 0.0285031445
H 4.8903366214 -0.8349868722 -0.5728024876
H 4.8512262152 -0.1117738639 1.0633410597
H 4.8857014761 0.9425722449 -0.3815523806
C -0.0064250291 -1.9366048074 -0.0728253053
N -0.0079922668 -3.0978042900 -0.0783101087
C -0.0098780838 -4.5293952932 -0.0676298223
H -0.8423728572 -4.8923743668 -0.6748088161
H -0.1248979763 -4.8772651818 0.9618905757
H 0.9351500219 -4.8933385151 -0.4776694201
C -1.9285385785 0.0039475046 -0.0262973608
N -3.0885672275 0.0031744973 -0.0008398375
C -4.5191368845 0.0001617749 0.0271115867
H -4.8919342834 -0.6110501720 -0.7987050024
H -4.8809291695 1.0256999227 -0.0794305876
H -4.8561421174 -0.4156589882 0.9796103810
C -0.0013066365 0.0008989275 -2.3368968450
N -0.0012414901 0.0006290216 -3.5009147196
C 0.0002681745 -0.0008446769 -4.9316969580
H -0.6072787157 -0.8344949662 -5.2912482915
H 1.0263178865 -0.1113262291 -5.2899240207
H -0.4170143223 0.9417417994 -5.2933331607
C -0.0001760826 0.0003512543 5.1995415873
C -0.1186807236 1.1923059967 4.4854763889
C -0.1150795875 1.1420025683 3.0939880836
N 0.0008194242 0.0002912251 2.3904806412
C 0.1161383704 -1.1414236717 3.0941093700
C 0.1187277659 -1.1916591732 4.4856073694
H -0.0005452208 0.0003853292 6.2850810723
H -0.2126485013 2.1468137059 4.9934757270
H -0.2085922644 2.0541040882 2.5138073768
H 0.2098338393 -2.0535782085 2.5140139863
H 0.2119970067 -2.1461692993 4.9937416924
