15
# extracted from Terachem optimization
Co -0.0000002103 -0.0000025458 -0.0000005913
C -0.0000002832 1.9525561645 0.0000174994
O -0.0000003984 3.0770475327 -0.0000149977
C 1.9554476908 0.0000001208 -0.0000038839
O 3.0803096367 0.0000004410 0.0000127752
C 0.0000006401 -1.9525599677 -0.0000170790
O 0.0000006808 -3.0770423921 0.0000155460
C -1.9554167930 -0.0000003658 0.0000039457
O -3.0803414003 0.0000001510 -0.0000129494
O -0.0000122801 0.0000047845 2.2610339528
H 0.7722671434 0.0299495897 2.8561971569
H -0.7722874566 -0.0299445478 2.8562032802
O 0.0000122809 -0.0000049281 -2.2610339269
H -0.7722667324 0.0299452499 -2.8561973110
H 0.7722874991 -0.0299492855 -2.8562034102
