31
# extracted from Terachem optimization
Co 0.0001527215 0.0002485182 0.0000242450
C 0.3582785222 1.9057935655 0.0013951865
O 0.5887766147 3.0058992130 0.0023878097
C 1.9250943246 -0.2337606138 -0.0011034745
O 3.0435343876 -0.3443487717 -0.0023863590
C -0.3581245512 -1.9052271550 0.0020398780
O -0.5886728832 -3.0053325482 0.0034305785
C -1.9253279086 0.2342504654 -0.0020039230
O -3.0438400914 0.3442942872 -0.0036172144
C -0.0000100676 0.0004713427 4.8213476021
C -0.7147980448 0.9670769246 4.1076653860
C -0.6975211749 0.9438659383 2.7174170686
N -0.0001100026 -0.0002794846 2.0282765782
C 0.6970355388 -0.9441674693 2.7181340059
C 0.7144020018 -0.9669082450 4.1084283477
H 0.0000485908 0.0016092499 5.9083743704
H -1.2863210035 1.7421578905 4.6112551425
H -1.2485195829 1.6916798613 2.1578373565
H 1.2483614032 -1.6920774936 2.1591049855
H 1.2861453552 -1.7416613347 4.6122159466
C 0.0001793227 -0.0002881108 -4.8212574101
C 0.7084195491 -0.9718180761 -4.1080067782
C 0.6913228097 -0.9486323568 -2.7177506651
N -0.0000139437 -0.0003379646 -2.0281322571
C -0.6910447806 0.9481904335 -2.7176583186
C -0.7080223885 0.9712399346 -4.1078868999
H 0.0006738179 -0.0004797486 -5.9082897599
H 1.2754439145 -1.7500007315 -4.6118994052
H 1.2382188034 -1.6999723599 -2.1590590255
H -1.2377633738 1.6994865279 -2.1586630951
H -1.2749295699 1.7494185377 -4.6116188881
