22
# extracted from Terachem optimization
Co -0.0401592964 0.1196227601 -0.0453337851
O 0.2862176952 2.1257005135 -0.1394088302
H 1.2470624728 2.2943077787 -0.1722307445
H -0.1328066958 2.7030143458 -0.8022431856
O 2.1713820929 0.1306786695 0.2801312519
H 2.8154704960 -0.1693704347 -0.3840054775
H 2.5891806325 -0.0340949221 1.1435120061
O -0.3722683787 -1.8335508263 0.4110830666
H 0.1196238663 -2.5711840565 0.0087642283
H -1.3237349822 -2.0206544982 0.2949544687
O -2.2679817189 0.0995917107 -0.1383343533
H -2.7142802647 0.4913989162 0.6329171883
H -2.8713322577 0.2239154709 -0.8916779229
O -0.4189488356 0.4351795920 1.8913946079
H -0.1941604523 1.2931421126 2.2933759766
H -0.2565033086 -0.2715090429 2.5415279077
C 0.1431732724 -0.1821755834 -1.9743031433
N 0.1976214401 -0.3591519941 -3.1183967428
C 0.2472712346 -0.5782217399 -4.5370460585
H -0.3771778901 -1.4413609886 -4.7807723205
H 1.2823321712 -0.7686607703 -4.8308821566
H -0.1299816890 0.3133829510 -5.0443445890
