29
# extracted from Terachem optimization
Co -0.0001506342 -0.0000855377 0.0000572477
N 0.0897220362 2.0301985564 0.0290502759
N 2.0302857079 0.0899343340 -0.0290990322
C 2.4513261744 1.5071813542 -0.3586421854
C 1.5069127238 2.4514870185 0.3585008856
H 1.6665397488 3.4906089507 0.0497815921
H 1.6285686327 2.4038501640 1.4451406130
H 2.4036003698 1.6287814823 -1.4452846662
H 3.4904424009 1.6669914298 -0.0499982959
H -0.1860514343 2.4375460642 -0.8724266513
H -0.5598949035 2.4502427918 0.7038687926
H 2.4377942895 -0.1857553456 0.8723305609
H 2.4503669556 -0.5596471869 -0.7039282756
N -0.0897186685 -2.0303347002 0.0280167201
N -2.0302491341 -0.0894972164 -0.0277887743
C -2.4516038926 -1.5066212571 -0.3578217538
C -1.5068793035 -2.4514248847 0.3582415052
H -1.6670384628 -3.4903810743 0.0492412590
H -1.6277340497 -2.4042034251 1.4449902677
H -2.4045124607 -1.6275913135 -1.4445628933
H -3.4905552452 -1.6665746775 -0.0487001893
H 0.1853084123 -2.4374727564 -0.8737829160
H 0.5601928893 -2.4507991537 0.7022876576
H -2.4372360568 0.1856947042 0.8740289410
H -2.4506571889 0.5603983564 -0.7021096598
C 0.0007640736 -0.0009329241 1.9378556343
O 0.0014047069 -0.0015119210 3.0629529183
C -0.0004711011 0.0000189395 -1.9377361778
O -0.0005004143 -0.0000250388 -3.0628337957
