31
# extracted from Terachem optimization
Co -0.0000028842 -0.0000263004 -0.0002322840
O -0.0001224037 -0.0009065134 2.3711793622
H 0.7706255109 0.0333156548 2.9607581993
H -0.7713013368 -0.0306290914 2.9604599478
O 0.0001125971 -0.0009033836 -2.3706746806
H -0.7705726558 0.0352986666 -2.9602246099
H 0.7712426091 -0.0326339737 -2.9599219767
C -0.0010253613 1.9342179196 -0.0005214510
N -0.0009918903 3.0932960554 -0.0009037147
C 0.0002243597 4.5248113021 -0.0000698283
H 0.8365965213 4.8803113009 -0.6063266012
H 0.1083031886 4.8788983407 1.0277825278
H -0.9428288150 4.8821931039 -0.4199758094
C 1.9356907025 0.0009067718 -0.0005126210
N 3.0955638421 0.0005466113 -0.0002343625
C 4.5283916423 -0.0000713389 -0.0006188726
H 4.8838301164 -0.8368421541 -0.6067499858
H 4.8830324882 -0.1084325468 1.0273663919
H 4.8853550162 0.9434681001 -0.4202194362
C 0.0010310357 -1.9344067043 -0.0005182909
N 0.0010025629 -3.0934873618 -0.0008675427
C -0.0002222062 -4.5250462858 -0.0000518309
H -0.8365895161 -4.8805797962 -0.6063047365
H -0.1083007842 -4.8792064449 1.0277831620
H 0.9428304337 -4.8824727259 -0.4199323461
C -1.9356985093 -0.0007629882 0.0007701010
N -3.0955576754 -0.0009981474 0.0007295297
C -4.5283878369 0.0003827015 -0.0004355100
H -4.8835480993 -0.6071619007 -0.8364154701
H -4.8840957989 1.0277605932 -0.1080310417
H -4.8845868620 -0.4208404422 0.9429107892
