49
# extracted from Terachem optimization
Co -0.1793132100 -0.0826357611 0.0643579140
O -0.2448485249 -0.0401231284 2.1878866108
H 0.1305589217 0.6416063992 2.7748912050
H -1.0111461428 -0.4144915872 2.6638185100
O -0.1162101070 2.1316992463 0.0780793957
C 0.8683905574 2.9039205302 0.7122253168
C 0.7008847571 4.2159669076 0.3945747581
C -0.4313055505 4.2999600433 -0.4752358777
C -0.9038712615 3.0358576840 -0.6461268110
H 1.5631727212 2.3701108412 1.3402549707
H 1.3096369978 5.0383553015 0.7489782599
H -1.7548097857 2.6207684555 -1.1598693717
H -0.8492742184 5.1985808184 -0.9116922199
O 2.1389972177 0.0642083880 0.0476708780
C 3.0930886406 -0.6520718322 0.7661587367
C 4.3509668151 -0.2760827623 0.3829530668
C 4.2013651890 0.7270611337 -0.6145177785
C 2.8579396568 0.9173005262 -0.7986134488
H 2.7170949262 -1.3636501503 1.4843972661
H 5.2778712799 -0.6715905973 0.7799507021
H 2.2789736713 1.5696142883 -1.4315503538
H 4.9910856994 1.2555245003 -1.1347064233
O 0.0403036822 -2.1974281353 0.0456302586
C 0.4106714810 -3.0075359291 1.1383032861
C 0.3882460594 -4.3098530004 0.7682053918
C -0.0109051462 -4.3576859869 -0.6097236111
C -0.2168223114 -3.0820560232 -1.0167295826
H 0.5982552776 -2.4860778798 2.0623644559
H 0.6190438901 -5.1552619239 1.4040845677
H -0.5206806955 -2.6285991420 -1.9449074573
H -0.1337596491 -5.2447685454 -1.2180596523
O -2.2936648037 -0.0718712031 0.0258972158
C -3.1159635966 0.7737984485 0.8024643200
C -4.4135449531 0.4674272980 0.5783416735
C -4.4453745761 -0.6140471387 -0.3709575189
C -3.1659744573 -0.9159361408 -0.6881405827
H -2.6021463000 1.5002470433 1.4110303723
H -5.2680197115 0.9500611049 1.0358304388
H -2.6981179558 -1.6581323562 -1.3135625079
H -5.3275922901 -1.1064811699 -0.7590570830
O -0.0622654697 -0.1104818354 -2.1395909175
C -0.9112207882 0.4895958846 -3.0771707906
C -0.3787134474 0.3708073384 -4.3241732900
C 0.8573455005 -0.3327399459 -4.1923034532
C 1.0260161687 -0.6134583504 -2.8695324167
H -1.8358165551 0.8891885268 -2.6940684499
H -0.8266324297 0.7327578728 -5.2407177818
H 1.7626609375 -1.1613408956 -2.3060094182
H 1.5352945221 -0.6100094539 -4.9895538385
