21
# extracted from Terachem optimization
Co 0.0000008847 0.0002730243 -0.0000037420
C -0.0000177605 2.1211634655 -0.0000025919
O 0.0000038771 3.2485751085 0.0000053485
C 2.1211087083 0.0000859186 -0.0000000189
O 3.2485285337 0.0000289147 0.0000858352
C 0.0000174256 -2.1211114064 0.0000034840
O -0.0000039658 -3.2485200301 -0.0000052672
C -2.1211115743 0.0000512544 0.0000007066
O -3.2485256899 0.0000357759 -0.0000858525
C 0.0002680077 0.0003936809 1.9370748014
N 0.0003970700 0.0004577932 3.0928171717
C -0.0000577455 -0.0001142240 4.5298991494
H 0.6080923790 -0.8391667941 4.8773453775
H -1.0308135115 -0.1077776519 4.8769920025
H 0.4221004039 0.9459094999 4.8783333338
C -0.0002687110 0.0003940329 -1.9370736582
N -0.0003966324 0.0004619756 -3.0928078493
C 0.0000577411 -0.0001105391 -4.5298972491
H -0.6080920196 -0.8391644921 -4.8773425810
H 1.0308127312 -0.1077758374 -4.8769945991
H -0.4221001389 0.9459105215 -4.8783437986
