22
# extracted from Terachem optimization
Co 0.0000156297 0.0000240235 0.1199488025
C 0.0243902178 2.4303913203 -0.1445868213
O 0.0332419054 3.5418242975 -0.3348104917
C 1.9448615936 -0.0029128048 0.2181204374
O 3.0660148691 -0.0004132980 0.3284702669
C -0.0242778520 -2.4304121987 -0.1441103554
O -0.0331471204 -3.5418546724 -0.3342324826
C -1.9447854006 0.0029927277 0.2180701125
O -3.0658971145 0.0003624151 0.3285052273
C 0.0000763821 -0.0001546048 -1.8621390748
O 0.0000695623 -0.0002595300 -2.9884419927
C -0.0002167201 0.0004209842 4.9036448854
C -0.1142891977 1.1953525975 4.1905066979
C -0.1126153638 1.1616883294 2.8028279950
N 0.0000373058 0.0002256836 2.1104200686
C 0.1123869079 -1.1611440096 2.8030346297
C 0.1141720765 -1.1946052367 4.1907215979
H -0.0002097851 0.0004948823 5.9896117289
H -0.2054437654 2.1532856928 4.6923636547
H -0.2058440162 2.0795180471 2.2383735788
H 0.2057873329 -2.0790390550 2.2387204500
H 0.2050825480 -2.1525026845 4.6927229723
