40
# extracted from Terachem optimization
Co 0.0005755780 0.0008004343 0.1135189700
C -0.0290105067 2.1878077716 0.0275827884
N -0.0188745730 3.3494454659 0.0153736943
C 0.0015161513 4.7799736609 -0.0008460156
H 0.8386087727 5.1186229296 -0.6159285024
H 0.1187268575 5.1467643189 1.0217966770
H -0.9379650356 5.1472953833 -0.4202326904
C 2.1862106914 -0.0293377944 0.0255699630
N 3.3478187189 -0.0194973207 0.0128063947
C 4.7784193612 -0.0011857081 -0.0032162272
H 5.1406270789 -0.8317022880 -0.6136234144
H 5.1481592781 -0.1053618858 1.0198083183
H 5.1193720449 0.9458569152 -0.4282113788
C 0.0292937378 -2.1871960528 0.0291080025
N 0.0188749988 -3.3488466394 0.0161780680
C -0.0017571318 -4.7794161639 -0.0003352287
H -0.8389862672 -5.1170311313 -0.6158040866
H -0.1194605510 -5.1467004300 1.0221942370
H 0.9378316746 -5.1464720092 -0.4198683405
C -2.1857786853 0.0304505926 0.0288859760
N -3.3473655757 0.0206798564 0.0151918946
C -4.7778501522 0.0010609227 -0.0044272435
H -5.1142071288 -0.6088520332 -0.8462274576
H -5.1486397793 1.0226691721 -0.1157246964
H -5.1424908099 -0.4259817042 0.9331241247
C 0.0009603433 -0.0001406731 2.3100820312
N 0.0010061769 0.0000802179 3.4711904169
C -0.0002006175 -0.0012982076 4.9011002656
H 0.6074601406 -0.8362290153 5.2575542499
H -1.0277852502 -0.1094592452 5.2562955488
H 0.4185406302 0.9427765724 5.2575765440
O -0.0006550996 -0.0000356697 -2.2077269892
C 0.7679723610 -0.8041690161 -3.0380371889
C 0.4967985386 -0.5205713465 -4.3323615057
C -0.4973791551 0.5206256911 -4.3325407181
C -0.7691667787 0.8041804448 -3.0382510929
H 1.4260473247 -1.4972693427 -2.5402054794
H 0.9441429117 -0.9894550407 -5.1976478456
H -1.4275240451 1.4972189366 -2.5404774709
H -0.9445801957 0.9897044665 -5.1978556464
