21
# extracted from Terachem optimization
Co 0.0001513706 0.0005597434 0.0000390885
C 0.0495072537 2.3000341847 0.0153197804
O 0.0592763797 3.4264820002 0.0239785994
C 2.2996964119 0.0498841387 -0.0153477668
O 3.4261601013 0.0593091201 -0.0235461985
C -0.0494530330 -2.2991739472 -0.0153440965
O -0.0591507913 -3.4256624319 -0.0239879825
C -2.2995372000 -0.0492932098 0.0153987396
O -3.4260155906 -0.0590805770 0.0235379352
C -0.0196188010 0.0212272534 2.1454168514
N -0.0159796196 0.0174717059 3.3040486299
C -0.0046303806 0.0041945830 4.7388182813
H 0.6072045200 -0.8379681742 5.0742362895
H -1.0311093897 -0.1075295648 5.0969009588
H 0.4187161371 0.9462160492 5.0958721801
C 0.0193953005 -0.0195141210 -2.1454099562
N 0.0155761567 -0.0161077477 -3.3040247638
C 0.0043643947 -0.0051538119 -4.7388370579
H -0.6062005814 -0.8399038440 -5.0916092164
H 1.0310809027 -0.1105661354 -5.0985680218
H -0.4194335356 0.9445747503 -5.0768923550
