54
# extracted from Terachem optimization
Co -0.0817066128 0.0061384042 -0.1597168839
O -0.2047122675 0.0292358640 2.1513848885
H 0.5432163705 -0.0475058767 2.7675602071
H -0.9926829998 0.1388008298 2.7102803890
C 0.1121499662 -0.0976799640 -2.3418616614
N 0.1802445955 -0.1386955447 -3.5014039187
C 0.2623784059 -0.1905567821 -4.9344456513
H -0.2821584536 -1.0681156006 -5.2914381384
H 1.3128252365 -0.2559856825 -5.2275627334
H -0.1834733644 0.7168449493 -5.3490892106
C 0.0655350013 5.0594738724 -0.0489225166
C 0.6143890012 4.3116325023 0.9935927386
C 0.5406211245 2.9098900666 0.9395164706
N -0.0283920017 2.2397014486 -0.0840167384
C -0.5584392141 2.9706746954 -1.0853873168
C -0.5373025366 4.3753075447 -1.1053480608
H 0.1054335139 6.1443859853 -0.0390561586
H 1.0925295901 4.7903995426 1.8427049070
H 0.9376854750 2.3046933289 1.7455698485
H -1.0121057946 2.4185647456 -1.9026860003
H -0.9852863370 4.9057455947 -1.9396452699
C 4.9982254873 0.0589540744 0.4380934991
C 4.2210246965 -0.9346354339 1.0326948425
C 2.8249827107 -0.9140162162 0.8476857516
N 2.1861128718 0.0235882403 0.1203166224
C 2.9465985043 0.9774378585 -0.4530093730
C 4.3476901039 1.0322925376 -0.3200572450
H 6.0772013430 0.0722511251 0.5589524071
H 4.6693985587 -1.7216158084 1.6311289475
H 2.2044183790 -1.6808988896 1.2984713053
H 2.4252008389 1.7187931056 -1.0484538691
H 4.8999900927 1.8271180689 -0.8111582914
C 0.0348354436 -5.0437490366 0.1751891027
C -0.7576173423 -4.2852184662 1.0379629437
C -0.7529665564 -2.8845904210 0.9169031246
N -0.0232513401 -2.2269700391 -0.0066123943
C 0.7411454077 -2.9680010374 -0.8352537769
C 0.8018633034 -4.3707591417 -0.7770263626
H 0.0545661611 -6.1275595610 0.2433778626
H -1.3710660527 -4.7543801643 1.8005437739
H -1.3405484640 -2.2711510118 1.5894758387
H 1.3209368775 -2.4234894250 -1.5732558803
H 1.4374044969 -4.9082294829 -1.4737473595
C -5.0970543503 0.0403558744 -0.2013538913
C -4.3808222380 1.0251792675 0.4797989549
C -2.9786233992 0.9672603509 0.4850469556
N -2.2774873788 0.0017052342 -0.1444915576
C -2.9787547263 -0.9423431264 -0.8068676298
C -4.3811446665 -0.9631542741 -0.8548468752
H -6.1823480643 0.0563993242 -0.2248098656
H -4.8862704897 1.8312733463 1.0019378388
H -2.4003520178 1.7222180288 1.0066671623
H -2.3999716286 -1.7028634880 -1.3191014933
H -4.8874623650 -1.7541553035 -1.3987453898
