30
# extracted from Terachem optimization
Co 0.0000234345 -0.0000548379 -0.0167055763
C 0.0000532091 0.0000954069 -1.8760335712
O 0.0000755574 0.0001387352 -3.0007806437
O -0.0001176666 -0.0013715953 1.9730634258
H 0.7921056722 0.0310894964 2.5408922363
H -0.7926739471 -0.0285561233 2.5407358778
C -0.0007829094 1.9453021392 -0.0266106640
N -0.0007842060 3.0993807449 -0.0163480594
C -0.0000688782 4.5409686110 -0.0017075862
H 0.8401748113 4.8926438118 -0.6070045492
H 0.1077351771 4.8739866451 1.0342924368
H -0.9470384042 4.8922220167 -0.4209201069
C 1.9433496928 0.0000758380 -0.0248613567
N 3.0979671213 0.0002988850 -0.0171387973
C 4.5400456955 0.0000702844 -0.0061217924
H 4.8901161066 -0.8408667888 -0.6114587286
H 4.8755879989 -0.1084916765 1.0292616574
H 4.8899162067 0.9477960950 -0.4248283954
C 0.0007964807 -1.9453524750 -0.0268252931
N 0.0007828797 -3.0994768061 -0.0164109570
C 0.0000609784 -4.5410227042 -0.0017122045
H -0.8402278499 -4.8926731878 -0.6069683952
H -0.1077225261 -4.8740091109 1.0342997042
H 0.9470760656 -4.8922554931 -0.4208470840
C -1.9433213015 -0.0002205206 -0.0244961555
N -3.0978365791 -0.0003544591 -0.0163191603
C -4.5399637779 0.0008461103 -0.0056082512
H -4.8913114165 -0.6089957581 -0.8430143977
H -4.8862821701 1.0327532655 -0.1095226772
H -4.8777354196 -0.4239675444 0.9440230505
