18
# extracted from Terachem optimization
Co -0.0001052570 0.0002093733 -0.0343480953
C -0.0009229799 1.9614173168 -0.0311348439
O -0.0014915698 3.0822812103 -0.0092179307
C 1.9571993746 -0.0010769404 -0.0818874037
O 3.0781535349 -0.0019817008 -0.1089250170
C 0.0010968676 -1.9610726932 -0.0315866015
O 0.0020300804 -3.0820040837 -0.0096166872
C -1.9574531341 0.0014209825 -0.0821138058
O -3.0782510524 0.0021671466 -0.1094166878
O -0.0000851171 -0.0001620969 1.9654855598
H 0.7896746324 0.0348468082 2.5503434786
H -0.7898813351 -0.0349398514 2.5503053639
C -0.0003387868 0.0005405212 -1.9544568145
N -0.0004559943 0.0005147391 -3.1073354743
C -0.0000534154 -0.0002516401 -4.5537733347
H -0.6120613560 -0.8445641435 -4.8908928570
H 1.0371706254 -0.1092346332 -4.8904779018
H -0.4242261255 0.9518897022 -4.8922689374
