31
# extracted from Terachem optimization
Co -0.0002210025 -0.0000688320 0.0002560756
C 0.3628172357 2.2912259936 0.0047855775
O 0.6182154412 3.3896892400 0.0118076992
C 2.2966743813 -0.3375162443 -0.0054772340
O 3.4216475160 -0.4156466596 -0.0123903801
C -0.3637080204 -2.2917980912 0.0060982010
O -0.6174349633 -3.3906755820 0.0115426042
C -2.2969846679 0.3374449155 -0.0063631074
O -3.4219832253 0.4151907335 -0.0135154970
C -0.0005627484 0.0005456099 4.8990089889
C -0.7180918584 0.9657648310 4.1878114429
C -0.6929110331 0.9318102332 2.8007057150
N 0.0001954181 0.0005395142 2.1003657327
C 0.6925404885 -0.9309577356 2.8011344895
C 0.7165999400 -0.9652238617 4.1882168269
H -0.0003887306 0.0011170688 5.9847859588
H -1.2888903719 1.7350979534 4.6970309517
H -1.2429018115 1.6704393286 2.2250895768
H 1.2428022942 -1.6696105588 2.2259320302
H 1.2865845158 -1.7348431301 4.6977953349
C 0.0009333490 -0.0000350603 -4.8988267380
C 0.7020406708 -0.9772079772 -4.1877000366
C 0.6777221057 -0.9428566325 -2.8005823668
N 0.0010632856 0.0001646218 -2.1000050119
C -0.6760606486 0.9428139755 -2.8006633220
C -0.7008625925 0.9767385067 -4.1878071684
H 0.0013195932 0.0001823271 -5.9846075531
H 1.2596188834 -1.7561035369 -4.6968012463
H 1.2142260987 -1.6914916928 -2.2251536770
H -1.2129482592 1.6912628843 -2.2252903124
H -1.2599830399 1.7543987878 -4.6971829496
