35
# extracted from Terachem optimization
Co -0.0139878523 0.0074888753 -0.0011805834
O -0.3507322488 2.1965764037 0.0212754523
H 0.3216704081 2.8999979085 -0.0252218095
H -1.2180916917 2.6323388739 0.1056821030
O 2.0550255506 0.2890825705 -0.2816448613
H 2.5126137536 0.3593051854 -1.1374891666
H 2.7065184003 0.4982519624 0.4101077286
O 0.3177063649 -2.1886059009 -0.0200575226
H 1.1848530843 -2.6310710191 -0.0672677932
H -0.3606662828 -2.8878921343 0.0021098907
O -2.0804644643 -0.2744514403 0.3001178965
H -2.5181494986 -0.3489499012 1.1660582480
H -2.7509205468 -0.4658502018 -0.3783884909
C 0.7349066734 0.0381596426 5.0487508628
C 0.4516200956 1.2165264606 4.3583947480
C 0.2531656097 1.1704117001 2.9538888255
N 0.3266085949 0.0339943679 2.2281051087
C 0.6001641184 -1.1004634155 2.9085904464
C 0.8108861622 -1.1427654830 4.3108414343
H 0.8896625783 0.0403826478 6.1238553337
H 0.3789384465 2.1715799778 4.8708891508
H 0.0229084733 2.0746802372 2.4026836458
H 0.6470340210 -2.0073649007 2.3177593466
H 1.0265047963 -2.0969850265 4.7830864003
C -0.6920560088 -0.0584061084 -5.0614008898
C -0.3543276322 -1.2171980449 -4.3623462330
C -0.1898200206 -1.1573816788 -2.9535675005
N -0.3431538287 -0.0263414607 -2.2317577127
C -0.6682356626 1.0892583627 -2.9201759428
C -0.8520233601 1.1168744760 -4.3276431545
H -0.8239910400 -0.0694708498 -6.1395653461
H -0.2115849269 -2.1667581695 -4.8701815967
H 0.0767805319 -2.0453030527 -2.3924179451
H -0.7785653133 1.9939803545 -2.3341521503
H -1.1104787738 2.0566790244 -4.8077391754
