21
# extracted from Terachem optimization
Co 0.0268785317 0.0527067404 -0.1043075324
C 0.0826209375 0.0565757676 2.2924957603
O 0.1008033832 0.0367063327 3.4164533427
O 0.3423339189 2.0381462644 0.0670543924
H 1.2190958003 2.4570563054 0.2154201006
H -0.3491696491 2.7173521434 0.2321159803
O 2.0380664206 -0.2448315008 -0.0601341960
H 2.6606048529 -0.0766582162 -0.8016019516
H 2.5787740904 -0.5766891632 0.6908003732
O -0.2730486328 -1.9297493298 0.1617791447
H 0.4141203748 -2.6273388660 0.0831193733
H -1.1505384675 -2.3706064401 0.1413013462
O -1.9768570123 0.3740491021 0.0400183849
H -2.5384239441 0.2641839256 0.8390036808
H -2.5595747102 0.7282918957 -0.6673414442
C -0.0391483649 -0.0523321772 -2.1872899048
N -0.0726446409 -0.1132335963 -3.3445689668
C -0.1141105436 -0.1734025704 -4.7760059190
H -0.8181368602 -0.9634568687 -5.0696549072
H 0.8925497919 -0.3926548721 -5.1488612431
H -0.4641962086 0.7958855533 -5.1554407363
