25
# extracted from Terachem optimization
Co 0.0001460098 0.0078731308 -0.0000279569
O -0.0000531369 2.1537757045 0.0000090597
H 0.5993621465 2.7300571040 -0.5033864119
H -0.5993531720 2.7301539147 0.5034341504
O 2.1709656769 -0.0154544036 -0.0413361584
H 2.7669294552 0.0014893074 -0.8088542122
H 2.7368628936 -0.0080906560 0.7492356190
O -0.0000502806 -2.1412376797 0.0000039720
H 0.6195185519 -2.7172009263 -0.4786440583
H -0.6195037786 -2.7172937250 0.4786937570
O -2.1710805425 -0.0154865798 0.0412869574
H -2.7670535354 0.0015009582 0.8087966812
H -2.7370770096 -0.0081120155 -0.7492200899
C -0.0392544905 0.0070294164 2.1600578734
N -0.0303766270 0.0045194511 3.3207719456
C -0.0065462005 -0.0016412063 4.7540527438
H 0.6073010503 -0.8395173284 5.0928597158
H -1.0277702073 -0.1125626228 5.1262149564
H 0.4190326564 0.9411902202 5.1057092791
C 0.0399727307 0.0070251468 -2.1598903877
N 0.0300692996 0.0045180965 -3.3205484238
C 0.0064734238 -0.0016430674 -4.7542013656
H -0.6074247598 -0.8396346593 -5.0931461290
H 1.0280472776 -0.1125925401 -5.1259374543
H -0.4191374454 0.9413349541 -5.1059340523
