38
# extracted from Terachem optimization
Co -0.0156696418 -0.0021963518 0.3136110147
C 0.0128323533 0.0335761554 -2.2195969858
O 0.0247958524 0.0713506810 -3.3495629551
C -0.1908001738 2.1757489163 0.0951128614
N -0.3007157193 3.3249677761 -0.0353629753
C -0.4385858990 4.7394643056 -0.2045438989
H 0.4096854402 5.1139856470 -0.7824043942
H -0.4607465545 5.2162910358 0.7783237668
H -1.3698484269 4.9461568253 -0.7369797040
C 2.1682756146 0.2155736068 0.1262392699
N 3.3253781602 0.2659232609 0.0326174424
C 4.7509974915 0.3142758487 -0.0856592544
H 5.0904277568 -0.5585516931 -0.6485435605
H 5.1936858528 0.3054896683 0.9134771672
H 5.0360042700 1.2287747671 -0.6109142751
C 0.1829810564 -2.1807622625 0.0875454767
N 0.3172409471 -3.3270273530 -0.0472547193
C 0.4971782304 -4.7370580985 -0.2151320309
H -0.3454384272 -5.1414719088 -0.7809015557
H 0.5453418831 -5.2098181156 0.7687648217
H 1.4292644593 -4.9140919898 -0.7571102994
C -2.1863559166 -0.2318227910 0.0691571238
N -3.3390920792 -0.2844341306 -0.0671295192
C -4.7598814079 -0.3343146599 -0.2353315692
H -5.0093142016 -1.1240477808 -0.9478504173
H -5.1082775786 0.6297251235 -0.6134585014
H -5.2251341380 -0.5438614895 0.7307711019
C -0.0159353018 0.0025813028 5.2210133312
C 0.7715321588 0.9068230448 4.5064470045
C 0.7355373819 0.8730537233 3.1183193645
N -0.0278655474 -0.0017125158 2.4307507014
C -0.7872314408 -0.8737044254 3.1266752863
C -0.8106941585 -0.9030294626 4.5157940213
H -0.0092726172 0.0033311431 6.3066954162
H 1.4032764382 1.6283322845 5.0132004223
H 1.3309246741 1.5612709846 2.5273208134
H -1.3879469178 -1.5627879390 2.5417934754
H -1.4371452364 -1.6227205247 5.0318403504
