43
# extracted from Terachem optimization
Co 0.0007924571 0.0031833656 -0.0253288365
C 0.0269756858 1.9383950671 -0.0638694949
N 0.0691665259 3.0955230412 -0.1162898652
C 0.1414072447 4.5244439025 -0.1851618289
H 0.9346912405 4.8054774687 -0.8821283637
H 0.3633507406 4.9150732625 0.8109640225
H -0.8172610607 4.9150522457 -0.5342538971
C 1.9339716850 0.0261357077 0.0315739976
N 3.0893790945 0.0670623055 0.1130825286
C 4.5143900390 0.1384288992 0.2369724082
H 4.9641817210 -0.6885234451 -0.3173868468
H 4.7788559006 0.0669329355 1.2949558663
H 4.8582619556 1.0919761482 -0.1706742795
C -0.0252085353 -1.9317044478 -0.0653337997
N -0.0680026318 -3.0887740300 -0.1177422683
C -0.1412287990 -4.5175643670 -0.1859349163
H -0.9348247372 -4.7985566206 -0.8824857245
H -0.3632787950 -4.9074419400 0.8103939036
H 0.8170207632 -4.9091867181 -0.5348807331
C -1.9321549453 -0.0221239239 0.0275673932
N -3.0878100344 -0.0682701134 0.1018465793
C -4.5132495897 -0.1523058476 0.2098301797
H -4.8884188770 -0.8174386789 -0.5716107395
H -4.9420780384 0.8450420022 0.0885814765
H -4.7679601349 -0.5510159557 1.1949281025
O 0.0014090013 0.0009786517 2.4019262176
C -0.6487926293 0.8974887939 3.2332892051
C -0.4180437203 0.5818158827 4.5295489216
C 0.4236961716 -0.5841270794 4.5278426715
C 0.6527123564 -0.8972689035 3.2306452107
H -1.2082865440 1.6764056350 2.7400080141
H -0.7978761826 1.1084670129 5.3938089025
H 1.2106313927 -1.6758837298 2.7350581839
H 0.8043762667 -1.1127023957 5.3905605873
O -0.0011557179 0.0038910833 -2.4317561731
C -0.9289661008 0.6122369349 -3.2607418807
C -0.6058904690 0.3963520459 -4.5576622627
C 0.5961718273 -0.3929235670 -4.5589557457
C 0.9237900722 -0.6060152569 -3.2627035048
H -1.7290607343 1.1377298037 -2.7642180509
H -1.1498379501 0.7509513586 -5.4220383134
H 1.7265391133 -1.1289477271 -2.7677429948
H 1.1377431424 -0.7483781756 -5.4244867631
