29
# extracted from Terachem optimization
Co -0.0057324358 0.0091105822 0.0265685599
N 0.1709157414 2.1700331491 0.3180737668
N 2.1566053615 0.2110090312 -0.2681156832
C 2.4602952151 1.6659629256 -0.4579029957
C 1.6220759835 2.4929899729 0.5079386171
H 1.8142493697 3.5600363378 0.3576028259
H 1.8837927530 2.2583309294 1.5449436289
H 2.2227897775 1.9249122407 -1.4949933771
H 3.5245910839 1.8727135377 -0.3070798528
H -0.1882747438 2.6926348310 -0.4840348237
H -0.3601426200 2.5245058196 1.1169434569
H 2.6828066953 -0.1405363095 0.5350738714
H 2.5191794149 -0.3156526499 -1.0662000653
N -0.1611751337 -2.1659305164 -0.2119220550
N -2.1713014787 -0.2170646780 0.2565298565
C -2.5565619129 -1.5787483833 -0.2351094391
C -1.5253438125 -2.5967844495 0.2331092528
H -1.7740371206 -3.5924099900 -0.1475385261
H -1.5137419132 -2.6583543438 1.3263574105
H -2.5910040135 -1.5392612853 -1.3288317708
H -3.5548338585 -1.8612737401 0.1138026641
H -0.0383194370 -2.4235585120 -1.1945303200
H 0.5471722358 -2.7048065018 0.2904024640
H -2.4359902289 -0.1367431353 1.2416536313
H -2.7313213107 0.4899347848 -0.2242959897
C 0.3826897549 -0.3698707387 2.3409722523
O 0.5844072495 -0.5665112586 3.4338526871
C -0.3866798905 0.3952123002 -2.2881085040
O -0.5770873784 0.6001701795 -3.3814979145
