42
# extracted from Terachem optimization
Co -0.0017373191 0.0019369589 0.0821501512
C 0.1550439381 1.9265186919 0.0458503622
N 0.2568642787 3.0774492912 0.0091455898
C 0.3897477856 4.5098779848 -0.0284590602
H 1.2822568936 4.7627725946 -0.6060715924
H 0.4863698401 4.8787816579 0.9956846994
H -0.4992771519 4.9343145661 -0.5017095894
C 1.9289522999 -0.0964645869 0.0433717297
N 3.0839320883 -0.1273761585 0.0056026270
C 4.5220004101 -0.1564127714 -0.0334907108
H 4.8399738087 -1.0047592346 -0.6448118644
H 4.8969487857 -0.2627509248 0.9875554031
H 4.8782758215 0.7802654242 -0.4698652851
C -0.1573876105 -1.9223470317 0.0509535314
N -0.2566421905 -3.0735157241 0.0149936120
C -0.3857524223 -4.5063742217 -0.0239482319
H -1.2897195730 -4.7599643268 -0.5833268783
H -0.4593409270 -4.8789983809 1.0008785128
H 0.4944387023 -4.9263686436 -0.5175389318
C -1.9306919653 0.1014478791 0.0439636660
N -3.0855307283 0.1318292596 0.0031183229
C -4.5233888650 0.1574092234 -0.0447394319
H -4.8568438834 -0.5203425966 -0.8348833348
H -4.8504452814 1.1780589480 -0.2591242520
H -4.9109332706 -0.1699008358 0.9234109262
C -0.0021716016 -0.0018513778 -1.8520487972
N 0.0003200662 -0.0049429908 -3.0077746705
C 0.0079670849 -0.0084194863 -4.4466357151
H -0.6734122195 -0.7869790826 -4.7987638805
H 1.0252977356 -0.2129323330 -4.7897106150
H -0.3213208762 0.9716162500 -4.8008606328
C -0.0043684562 -0.0002240227 4.8953522357
C -0.8070927172 0.8914108487 4.1818702094
C -0.7831136049 0.8670373194 2.7930056670
N -0.0021200744 0.0042108249 2.0988625142
C 0.7771270670 -0.8611842057 2.7916856214
C 0.7988827402 -0.8902950319 4.1803967110
H -0.0054402329 -0.0020150321 5.9813545444
H -1.4509722903 1.6024130777 4.6895359861
H -1.3985821663 1.5500977973 2.2219137530
H 1.3915521682 -1.5440944741 2.2191841451
H 1.4397423731 -1.6056525084 4.6860153914
