22
# extracted from Terachem optimization
Co -0.0000239894 0.0000676325 0.1066301403
C 0.6042580190 1.8649964232 0.0936382564
O 0.9624582073 2.9275789211 0.0551086972
C 1.8888337469 -0.5284739088 0.1035454097
O 2.9740736186 -0.8128385812 0.0780647977
C -0.6039936363 -1.8650411580 0.0924635925
O -0.9619354208 -2.9276707234 0.0530726648
C -1.8887634637 0.5284804340 0.1028568961
O -2.9740434081 0.8126001561 0.0768080679
C 0.0007716226 0.0002265847 -1.9418386179
O 0.0007977050 0.0004287209 -3.0635346472
C 0.0000424684 0.0006267872 4.8841272941
C -0.5422283306 1.0741471443 4.1708775318
C -0.5340457023 1.0527836164 2.7773145046
N -0.0006018302 -0.0001409913 2.0968801844
C 0.5332537088 -1.0526561463 2.7776169908
C 0.5418997296 -1.0733287919 4.1712051756
H 0.0004679111 0.0009598379 5.9722959490
H -0.9787146490 1.9359335721 4.6713924720
H -0.9624150216 1.8801628509 2.2233721647
H 0.9609616462 -1.8805436044 2.2238796297
H 0.9783578405 -1.9350162260 4.6719625720
