17
# extracted from Terachem optimization
Co -0.0213339275 0.0214160788 -0.0265678335
C 0.0631375290 2.2878048643 0.0976401656
O 0.1016156386 3.4123340309 0.1056772035
C 2.2713392250 0.0422948077 0.0367762163
O 3.3963146869 0.0609148876 0.0079845793
C -0.0417906795 -2.2711412179 0.0362235731
O -0.0603617781 -3.3960393505 0.0075826860
C -2.2875128305 -0.0626180686 0.0970586183
O -3.4120896469 -0.1011315957 0.1051284760
C -0.0349893088 0.0348280572 2.3019400404
O -0.0432227100 0.0429553237 3.4271925492
C 0.0133012642 -0.0129868964 -2.1393819529
N 0.0164544223 -0.0173600676 -3.2972053005
C 0.0106487092 -0.0125602254 -4.7326064834
H -0.6006097403 -0.8483733147 -5.0827242946
H 1.0396590098 -0.1179172268 -5.0867138823
H -0.4105608968 0.9375799390 -5.0736492713
