18
# extracted from Terachem optimization
Co -0.0084112735 -0.0121457821 0.0154888015
C -0.3902280531 -0.3333180083 -2.2273406120
O -0.5888018448 -0.4835234940 -3.3220189344
O 0.2516812823 1.9415145395 -0.3096513210
H 1.1173008622 2.3826710583 -0.4750193871
H -0.4549987142 2.6252420194 -0.3813894052
O 1.9648845728 -0.3167187292 -0.2760041036
H 2.4663146742 -0.3731777638 -1.1222965034
H 2.6142423245 -0.4448992972 0.4529341935
O -0.2644525312 -1.9738312676 0.3220162461
H 0.3999507653 -2.6834923814 0.1527696329
H -1.1452006570 -2.4082715762 0.4110670473
O -1.9762662762 0.2786062921 0.3169948418
H -2.3581038668 0.3317602471 1.2234344211
H -2.7165383014 0.3956394786 -0.3226450918
O 0.2696630602 0.2977458295 2.0378229081
H 0.4072852886 1.1685186381 2.4676777207
H 0.4116785124 -0.3923197770 2.7204861746
