61
# extracted from Terachem optimization
Co -0.0217934006 -0.0215391602 -0.0060244973
N 0.0639683630 2.0028844933 -0.0995042790
N 2.2013531900 0.3597918986 0.1751997496
C -1.0108237343 2.7774760914 -0.3324717379
H -1.9587611855 2.2564554488 -0.3843141984
C -0.9329361681 4.1563184208 -0.4928256275
H -1.8330522879 4.7339022329 -0.6733133488
C 0.3219219615 4.7592643117 -0.4230352816
H 0.4328518141 5.8308461134 -0.5560693645
C 1.4385469540 3.9633918482 -0.1822244105
H 2.4206259839 4.4185518593 -0.1422616368
C 3.7071497138 2.1710499769 0.6325879123
H 3.8897689666 3.2334782363 0.7398976043
C 4.7406113491 1.2672076596 0.8729010412
H 5.7258591908 1.6277811203 1.1517469361
C 4.4878494804 -0.0979248235 0.7541221932
H 5.2644739232 -0.8352066553 0.9277633883
C 3.1992968387 -0.5026399668 0.4089437584
H 2.9580955439 -1.5574364311 0.3120506402
C 1.2909067075 2.5817525429 -0.0103800193
C 2.4434343783 1.6858366905 0.2739756857
N 0.1652419098 -2.0159023112 0.1774030855
N -0.1521700939 -0.1305791858 1.9786579670
C 0.3341787025 -2.9128689367 -0.8080454696
H 0.3832087752 -2.5103147994 -1.8118719730
C 0.4422024827 -4.2807850943 -0.5732644835
H 0.5762358163 -4.9629845556 -1.4057684439
C 0.3707209037 -4.7388415684 0.7406731456
H 0.4449664696 -5.7981414752 0.9653426121
C 0.2030392545 -3.8137605742 1.7688673591
H 0.1483484850 -4.1543086898 2.7957820059
C -0.1367406969 -1.6326978317 3.8504460756
H -0.0606960329 -2.6406609701 4.2403627111
C -0.3043845741 -0.5632415990 4.7274130478
H -0.3582442465 -0.7379663473 5.7973565482
C -0.4023278108 0.7262214004 4.2078631198
H -0.5373227196 1.5882246302 4.8521799976
C -0.3199519105 0.8959084795 2.8287442346
H -0.3881557333 1.8766834001 2.3754825360
C 0.1052792683 -2.4535833405 1.4626277451
C -0.0662480094 -1.3930178353 2.4754807651
N -2.2314510858 -0.2291495137 -0.3335465161
N -0.1216214258 -0.0466516701 -2.0092266915
C -3.2275964700 -0.3582261069 0.5526239075
H -2.9553987845 -0.2704786464 1.6005745433
C -4.5512652620 -0.5858108409 0.1801390041
H -5.3240689876 -0.6769250006 0.9359581372
C -4.8447201291 -0.6902965863 -1.1779928182
H -5.8611176241 -0.8683954811 -1.5148954518
C -3.8126343964 -0.5640608039 -2.1060139715
H -4.0339670238 -0.6526677740 -3.1625814552
C -1.4957731625 -0.1396289266 -3.9675321229
H -2.4756322909 -0.2226890832 -4.4206359529
C -0.3763256740 0.0053433336 -4.7823254563
H -0.4864091701 0.0276813017 -5.8620511503
C 0.8789541049 0.1245540787 -4.1888113532
H 1.7807512456 0.2388666380 -4.7805295589
C 0.9561755407 0.0986601308 -2.8008625417
H 1.9032252637 0.1904181830 -2.2843648972
C -2.5084144607 -0.3289567324 -1.6536188412
C -1.3520017632 -0.1682264572 -2.5749133389
