34
# extracted from Terachem optimization
Co -0.0005044692 0.0008959249 -0.1864731788
O 0.0015622397 -0.0008173357 2.3026986203
H 0.7631953262 0.1018374643 2.8964986635
H -0.7650608153 -0.0773053954 2.8940137542
C -0.0026818624 1.9296222624 -0.0615636575
N -0.0021311800 3.0862778613 0.0220392981
C 0.0018073584 4.5135004632 0.1271498172
H 0.8315262675 4.9120482443 -0.4614413644
H 0.1217727621 4.7926517438 1.1766693082
H -0.9445984054 4.9028890623 -0.2554258652
C 1.9306410367 0.0011526783 -0.0808616104
N 3.0888333094 0.0000586575 -0.0155969717
C 4.5185750469 -0.0048925849 0.0577181959
H 4.9032762107 -0.8327668838 -0.5424597802
H 4.8214550730 -0.1305476698 1.0999771977
H 4.8995800173 0.9435647115 -0.3280938910
C 0.0022200012 -1.9277324938 -0.0611116682
N 0.0022814937 -3.0842672539 0.0220823113
C -0.0005968847 -4.5114750130 0.1273814135
H -0.8305678060 -4.9106662600 -0.4603915996
H -0.1194318399 -4.7903594372 1.1770836618
H 0.9457499231 -4.9002010420 -0.2559720959
C -1.9316423722 -0.0004025375 -0.0796932474
N -3.0898960457 -0.0010375650 -0.0141005685
C -4.5199195533 0.0006639323 0.0536804865
H -4.9154028338 -0.6111697288 -0.7604999888
H -4.8802602773 1.0274195873 -0.0431902028
H -4.8330438564 -0.4142466745 1.0147688934
C -0.0011670480 0.0003260405 -2.3518003392
N -0.0016476988 -0.0002666811 -3.5148618142
C 0.0008600793 -0.0029864430 -4.9458625867
H -0.6138314247 -0.8321381767 -5.3040986112
H 1.0268040206 -0.1230479291 -5.3017049175
H -0.4077564967 0.9434174571 -5.3078786621
