79
# extracted from Terachem optimization
Co 0.0086072852 -0.0426067285 0.0179460411
C 0.7332811398 4.9213404183 -0.6552900715
C 1.5428506843 3.9773293688 -1.3047933593
C 1.2974818144 2.6274467098 -1.0861129745
N 0.3185172318 2.1745903884 -0.2778448066
C -0.4533528060 3.0874757816 0.3440286967
C -0.2881581804 4.4581485963 0.1879360785
C 0.9446077993 6.3251493301 -0.8480757817
H 2.3444968302 4.2919567624 -1.9636590185
H 1.9075756316 1.8739375237 -1.5732209259
H -1.2338177063 2.6999933062 0.9901565258
H -0.9370748843 5.1537471851 0.7083282521
N 1.1159392365 7.4639017877 -1.0044395007
C 4.9558158261 -0.5998173013 0.7904019293
C 4.2325645563 0.3928191297 1.4694921844
C 2.8690521483 0.5047694445 1.2291385942
N 2.2018363774 -0.2945335749 0.3728014165
C 2.9041298556 -1.2440218009 -0.2778197209
C 4.2686972116 -1.4353724743 -0.1035039304
C 6.3637008967 -0.7558299184 1.0040295845
H 4.7262081156 1.0608538364 2.1664135500
H 2.2813191224 1.2626635290 1.7355964398
H 2.3439818366 -1.8732194997 -0.9610815187
H 4.7901389070 -2.2151394865 -0.6473197848
N 7.5059189824 -0.8823124543 1.1771432884
C -0.7351627486 -4.9637867264 0.7258300543
C 0.0914717331 -4.2271863533 1.5882152276
C 0.2639048800 -2.8704250297 1.3469452663
N -0.3213357310 -2.2227168981 0.3194230821
C -1.1129922331 -2.9370880624 -0.5054189525
C -1.3499104075 -4.2962477636 -0.3445559662
C -0.9467001934 -6.3652711053 0.9335502629
H 0.5858541679 -4.7050599408 2.4266273670
H 0.8960922278 -2.2726092557 1.9947081193
H -1.5726664579 -2.3916477017 -1.3223504829
H -1.9970491697 -4.8279753427 -1.0331384661
N -1.1183362956 -7.5022769307 1.1020525440
C -4.9154052818 0.7041161672 -0.8797434368
C -3.9454571717 1.2560688076 -1.7303705491
C -2.6044892580 1.0201162097 -1.4540214145
N -2.1840312330 0.2870810417 -0.4041935234
C -3.1220329640 -0.2380708312 0.4092499740
C -4.4862863916 -0.0615369157 0.2147636039
C -6.3110182404 0.9174023936 -1.1231187393
H -4.2339092543 1.8554208984 -2.5866984214
H -1.8316297741 1.4321535854 -2.0938050012
H -2.7602683137 -0.8250190856 1.2469595613
H -5.2023353969 -0.5073280489 0.8961331074
N -7.4431485810 1.0903263215 -1.3204391239
C -0.2978778442 0.3222099267 2.1727539030
N -0.4644839092 0.5144718314 3.3087880837
C -0.6761455290 0.7582251106 4.7404690374
C -1.3222454481 2.1475651813 4.8800703293
H -2.2893569077 2.1893024824 4.3698510952
H -0.6696775024 2.9298190707 4.4805176034
H -1.4880686632 2.3532656288 5.9413681063
C -1.6054848849 -0.3511306484 5.2632541706
H -2.5750898970 -0.3289583368 4.7565283403
H -1.7766015147 -0.1917613490 6.3316197516
H -1.1556908798 -1.3400465339 5.1336262113
C 0.7014186846 0.7069336567 5.4240880122
H 1.3668406123 1.4836668398 5.0350322657
H 1.1743072351 -0.2710210028 5.2928606302
H 0.5688824196 0.8794415232 6.4959312673
C 0.2868368983 -0.4053501386 -2.1437058954
N 0.4142180410 -0.5772929172 -3.2881151923
C 0.5707575522 -0.7842345646 -4.7320024984
C 0.2539800033 -2.2613215339 -5.0253766043
H -0.7753524170 -2.5089627005 -4.7488126131
H 0.9393347298 -2.9285639517 -4.4941042317
H 0.3701378392 -2.4380219000 -6.0983387069
C -0.4212471160 0.1544708575 -5.4406136383
H -1.4539405423 -0.0790557765 -5.1639526641
H -0.3205900169 0.0216883328 -6.5214864710
H -0.2130215765 1.2027907403 -5.2055950475
C 2.0271154654 -0.4395905931 -5.0903095293
H 2.7304980024 -1.0863986154 -4.5573845327
H 2.2558328329 0.6055572946 -4.8607776436
H 2.1715592570 -0.5917293573 -6.1636744138
