47
# extracted from Terachem optimization
Co -0.0223703921 0.0650184745 -0.0439920607
C 0.8624496229 3.0617146208 -0.3272964428
N -0.1836240371 2.0875029281 0.1364727942
H -1.0378647738 2.3132100236 -0.3750595032
H -0.4120689831 2.2866530092 1.1145893293
H 1.1081980994 2.8715393757 -1.3731808462
H 1.7560109209 2.9935586085 0.2956433427
H 0.4711403310 4.0803208851 -0.2392202456
C 2.9455967074 -0.9230670276 -0.0245172400
N 1.9930390411 0.2162611862 -0.2513218305
H 2.1827838597 0.6244498877 -1.1708930214
H 2.2525876109 0.9451901471 0.4147153374
H 2.8371343504 -1.6817912633 -0.8014572068
H 2.7750253456 -1.3582452956 0.9617226644
H 3.9729286148 -0.5468647809 -0.0650745705
C -1.0885157178 -2.8382074888 -0.6035103985
N 0.0916966901 -1.9387203965 -0.3697247841
H 0.6635663497 -2.0013533142 -1.2144190016
H 0.6664939721 -2.3409938851 0.3768328948
H -1.7025446227 -2.4461323586 -1.4162647479
H -1.6825209684 -2.9516118843 0.3058773758
H -0.7300172820 -3.8325304221 -0.8889633498
C -2.8246016792 0.9123088168 1.0902401308
N -2.0187307259 -0.1047987412 0.3322558840
H -2.4805654692 -0.2897489865 -0.5629598715
H -2.0981846208 -0.9810450872 0.8489941489
H -2.9441607590 1.8266652675 0.5065253077
H -2.3480051263 1.1260685046 2.0482988641
H -3.8237125402 0.5076984076 1.2816331387
O 0.2268619843 -0.0887615521 1.9512373328
C 0.0531893987 -1.2954417444 2.6806714239
C 0.7552756812 -1.2379667642 3.8282704513
C 1.4352081014 0.0357759737 3.8620428898
C 1.1179707799 0.6982632176 2.7341760488
H -0.6478095747 -2.0066261173 2.2752566760
H 0.7753592762 -1.9998851540 4.5983820043
H 1.3317580641 1.6890904416 2.3674920316
H 2.0620861504 0.4112376472 4.6621522054
O -0.2292300312 0.3638389465 -2.0343209185
C 0.4891777452 -0.3239023219 -3.0545194569
C -0.2279500022 -0.3196176451 -4.1939242205
C -1.4674722005 0.3728805596 -3.9306433699
C -1.4509593069 0.7610595916 -2.6414921859
H 1.4882973712 -0.6492225050 -2.8109065553
H 0.0905102809 -0.7322562409 -5.1439489671
H -2.1147512540 1.3659743748 -2.0447319763
H -2.2556648366 0.5776609710 -4.6453840485
