37
# extracted from Terachem optimization
Co -0.0000104805 0.0002276910 -0.0001489031
C -0.0008561479 1.9085103295 -0.0003558886
N -0.0007394372 3.0683239487 -0.0004792375
C 0.0003339279 4.4987633307 0.0000419988
H 0.8366404128 4.8542704457 -0.6069223160
H 0.1085147452 4.8541733419 1.0277191130
H -0.9431212220 4.8558105782 -0.4201896946
C 2.1116254073 0.0010941586 -0.0008816360
N 3.2744135007 0.0007342040 -0.0010029817
C 4.7051188655 -0.0002761405 0.0003534311
H 5.0640796264 -0.8354446161 -0.6056233395
H 5.0634230350 -0.1080400749 1.0267605579
H 5.0653349199 0.9418706472 -0.4193464613
C 0.0008266320 -1.9081993573 -0.0003508957
N 0.0007041586 -3.0679812114 -0.0004606389
C -0.0003505169 -4.4984643850 0.0000866927
H -0.8366447339 -4.8540091281 -0.6068692466
H -0.1085415921 -4.8538783627 1.0277608989
H 0.9430953046 -4.8555488933 -0.4201191228
C -2.1116520126 -0.0010545464 0.0012692848
N -3.2744126553 -0.0002684713 0.0007799477
C -4.7051320448 -0.0000999726 -0.0002510527
H -5.0636396580 -0.6058769695 -0.8357549496
H -5.0639076214 1.0261411148 -0.1079859785
H -5.0653368786 -0.4199248618 0.9418461190
C 0.0008903958 0.0007353741 2.1109857841
N 0.0010076214 0.0007205998 3.2738216206
C -0.0001078868 -0.0002740284 4.7045199942
H 0.6058822661 -0.8355053514 5.0633323198
H -1.0264679014 -0.1079710448 5.0630151269
H 0.4197480160 0.9418253946 5.0647080968
C -0.0008995138 0.0007089323 -2.1110525641
N -0.0009883777 0.0006917464 -3.2737693914
C 0.0001480882 -0.0002438469 -4.7045182770
H -0.6058236800 -0.8354835877 -5.0633289468
H 1.0265225399 -0.1079474025 -5.0629565111
H -0.4196770963 0.9418894024 -5.0646359501
