54
# extracted from Terachem optimization
Co 0.0972165532 -0.0018232101 0.0737967386
C 0.0130927392 -0.0510707913 -2.0456834988
N 0.0176744096 -0.0233685394 -3.2049411817
C 0.0330406170 0.0336891260 -4.6412025425
H -0.5514252630 -0.8011739182 -5.0362448099
H 1.0681578496 -0.0414630681 -4.9844695080
H -0.3986594622 0.9865289045 -4.9584129850
O 0.0597795231 2.2773575119 0.0005094203
C -1.0829352912 3.0636637087 -0.1394568450
C -0.7361078795 4.3808659330 -0.2031724758
C 0.6865195949 4.4443916169 -0.1138564338
C 1.1392679551 3.1632553444 -0.0032513150
H -2.0169353923 2.5286969778 -0.1705914234
H -1.4198448755 5.2137083459 -0.3051790788
H 2.1160385364 2.7108807549 0.0653851900
H 1.2996393155 5.3360869731 -0.1331032241
O 2.3455089953 -0.0249023448 0.1006831550
C 3.1908330538 0.3328984211 1.1584235103
C 4.4851330775 0.1276436541 0.8011752879
C 4.4803696359 -0.3893227702 -0.5355263104
C 3.1836841413 -0.4709297327 -0.9294654605
H 2.6977683820 0.6754748418 2.0537119601
H 5.3532378836 0.3193963313 1.4183153561
H 2.6902741170 -0.7810345093 -1.8358682864
H 5.3440038741 -0.6638933173 -1.1270093393
O 0.1536470559 -2.3003310547 0.0383425181
C 1.2772160913 -3.1009437099 0.2411985390
C 0.9531730623 -4.4112107737 0.0389079547
C -0.4311201122 -4.4544836960 -0.3032964460
C -0.8837812243 -3.1675784692 -0.2951183760
H 2.1761492994 -2.5833638651 0.5336661450
H 1.6283983293 -5.2516803230 0.1334994555
H -1.8444845037 -2.7066358080 -0.4625002864
H -1.0223791016 -5.3351248392 -0.5194339716
O -2.4279299631 0.0203124987 0.0496643320
C -3.2748686472 -0.1856569994 -1.0350364829
C -4.5791018961 -0.0169508582 -0.6602552512
C -4.5695577844 0.3166688510 0.7231933954
C -3.2612481711 0.3293739668 1.1214068341
H -2.7960260237 -0.4286415934 -1.9701639856
H -5.4458372183 -0.1194903838 -1.3008815576
H -2.7747005319 0.5109042221 2.0658189330
H -5.4276551236 0.5185886624 1.3517532361
C -0.1824083082 -0.0077222903 4.9784796654
C -0.3785221827 -1.1799986812 4.2467568085
C -0.3120472599 -1.1346470695 2.8595058542
N -0.0773806424 0.0114570519 2.1677248659
C 0.0951583936 1.1500483655 2.8925140436
C 0.0587460122 1.1780231895 4.2803364687
H -0.2162744466 -0.0165170277 6.0639097617
H -0.5764205450 -2.1256945485 4.7398984263
H -0.4571205549 -2.0351456256 2.2788221177
H 0.2796237938 2.0601920222 2.3386515855
H 0.2206088543 2.1161087001 4.8016503397
