33
# extracted from Terachem optimization
Co 0.0007853756 0.0098545040 -0.0019902706
C 0.0022412304 1.9458546940 -0.0014796489
N 0.0041439977 3.1068538652 -0.0010995205
C 0.0076182088 4.5392754924 0.0000475250
H 0.8445290970 4.8948957419 -0.6056542210
H 0.1160999789 4.8945769554 1.0276207531
H -0.9343873527 4.8997104060 -0.4199763530
C 1.9371907425 0.0018572769 0.0002123823
N 3.0982318263 -0.0071214792 0.0020384710
C 4.5306449420 -0.0219738547 0.0050185799
H 4.8802215672 -0.8602651271 -0.6022876794
H 4.8837377934 -0.1360303308 1.0327446323
H 4.8993285974 0.9181943386 -0.4119476479
C -0.0019998206 -1.9268915954 -0.0022636821
N -0.0057192899 -3.0880444708 -0.0025640100
C -0.0120972751 -4.5206007266 -0.0025308722
H -0.8490030467 -4.8740213974 -0.6095273219
H -0.1228296824 -4.8766618163 1.0245228147
H 0.9298634651 -4.8827045438 -0.4212052503
C -1.9355550678 0.0044741329 -0.0021402048
N -3.0966169122 -0.0034477305 -0.0001687661
C -4.5289790971 -0.0173299874 0.0034321525
H -4.8958480486 0.9701467058 0.2931658884
H -4.8768401253 -0.7673862663 0.7177383335
H -4.8858978810 -0.2663845702 -0.9988265542
N -0.0015988111 0.0017692566 2.3453420980
H -0.8334432478 0.4467230894 2.7361511859
H 0.0370525943 -0.9291227598 2.7638441915
H 0.7929232215 0.5126267975 2.7330995165
N 0.0035436723 0.0028947540 -2.3487213770
H -0.8240495163 0.4542885014 -2.7411428890
H 0.8026454162 0.5079847262 -2.7346346737
H 0.0361817590 -0.9281415536 -2.7674771634
