49
# extracted from Terachem optimization
Co -0.0033493195 0.0217200754 -0.0219463775
C -0.0800638852 0.3376568363 1.9095771845
N -0.1344944399 0.5384768194 3.0488461744
C -0.1963617857 0.7961940749 4.4569033512
H 0.5618414326 0.1916030823 4.9603069190
H -1.1912028553 0.5300383680 4.8218304170
H -0.0058393807 1.8582617293 4.6293752499
C 0.0609733344 -0.2773592086 -1.9598674141
N 0.0979851596 -0.4475399286 -3.1048586149
C 0.1379494911 -0.6580920469 -4.5217330434
H -0.0492281632 -1.7148736520 -4.7278298194
H 1.1242875748 -0.3710699158 -4.8939876456
H -0.6324960006 -0.0424460867 -4.9921054651
O 0.0232445509 2.0535876685 -0.3477558060
C -0.9239184696 2.9855830687 0.0940796653
C -0.4896507129 4.2297429130 -0.1991741304
C 0.7876942593 4.0982539550 -0.8525535028
C 1.0694649222 2.7802439026 -0.9274158063
H -1.8088866852 2.5690454784 0.5453004278
H -1.0139015810 5.1506775425 0.0153344997
H 1.8865410168 2.1941096057 -1.3123562537
H 1.4114386514 4.9007940715 -1.2214385864
O 2.2974110338 -0.0202516248 0.0443601733
C 3.1358927261 0.7032695228 0.8902019161
C 4.4179555857 0.3141852949 0.7055163560
C 4.4059638699 -0.7109850841 -0.3051428029
C 3.1177826990 -0.8829631051 -0.6777876522
H 2.6554509745 1.4485043935 1.5032424927
H 5.2847766924 0.7056527147 1.2198789905
H 2.6156843923 -1.5376774053 -1.3709683553
H 5.2599777646 -1.2451806486 -0.6981847430
O -0.0210923192 -2.0172993274 0.2909173907
C 0.8976341103 -2.7693428766 1.0327075345
C 0.5364303936 -4.0695946664 0.9988684790
C -0.6643244682 -4.1631515979 0.2084724617
C -0.9754785023 -2.9151200576 -0.2015917210
H 1.7120694787 -2.2158217203 1.4683147091
H 1.0584484608 -4.8850669538 1.4802160632
H -1.7720012877 -2.4761983114 -0.7784931373
H -1.2208086001 -5.0622272303 -0.0181582744
O -2.3110209438 0.0329244391 -0.0673487066
C -3.1799753327 -0.5424688396 0.8575593313
C -4.4589094722 -0.3677593788 0.4547941869
C -4.4138279619 0.3576483176 -0.7879977789
C -3.1098889425 0.5774888576 -1.0703512175
H -2.7136880899 -1.0335082379 1.6966291031
H -5.3436788278 -0.7121522709 0.9721307193
H -2.5852567609 1.0907583366 -1.8601006907
H -5.2580361149 0.6714544080 -1.3862825708
