14
# extracted from Terachem optimization
Co -0.0000006408 0.0000052130 -0.0630597125
C -0.0014125713 1.9522522622 0.0411179051
O -0.0023366086 3.0719792234 0.1424400189
C 1.9580788045 -0.0013660627 -0.0318183964
O 3.0822934595 -0.0023656046 -0.0067344073
C 0.0014144132 -1.9522802430 0.0413774044
O 0.0023412970 -3.0719659309 0.1423638084
C -1.9580859287 0.0013563206 -0.0318199246
O -3.0822870633 0.0023634055 -0.0067629301
C 0.0000045887 0.0000514940 -2.3780087452
O 0.0000081517 -0.0000152398 -3.5033471495
O -0.0000018096 -0.0000127812 2.2190562440
H 0.7720555184 0.0402427374 2.8147686254
H -0.7720715740 -0.0402448178 2.8147542268
