15
# extracted from Terachem optimization
Co 0.0002095095 0.0006910359 0.0007164254
C 0.1233619609 2.2872880014 -0.0007824116
O 0.1618367109 3.4119576143 -0.0056092886
C 2.2808786706 -0.0267909117 -0.0000612834
O 3.4061895933 -0.0323095971 0.0026855397
C -0.1232996104 -2.2866645224 -0.0007220969
O -0.1628458576 -3.4112375361 -0.0054596351
C -2.2807317473 0.0263297426 0.0001618833
O -3.4058767185 0.0305140686 0.0031499970
O -0.0000689520 0.0001390446 2.0820820102
H 0.5438203077 0.5612739889 2.6677502149
H -0.5439287456 -0.5611307109 2.6676720957
O 0.0002505485 0.0000456909 -2.0801889568
H -0.5745027146 -0.5297811198 -2.6654601879
H 0.5747069259 0.5296751117 -2.6659344163
