15
# extracted from Terachem optimization
Co 0.0000096703 0.0000016713 -0.0000053386
C 0.0000069582 2.2667529981 0.0000571651
O 0.0000042757 3.3885881195 -0.0000117223
C 2.2876568769 0.0000007498 0.0000184918
O 3.4094803281 0.0000000799 -0.0000050041
C 0.0000091843 -2.2667273274 -0.0000843461
O 0.0000038811 -3.3886157652 0.0000169655
C -2.2876183938 -0.0000007127 0.0000140384
O -3.4094990217 0.0000002437 -0.0000038259
O -0.0000044564 -0.0001382824 1.9932622520
H 0.7922879735 0.0448822095 2.5902080125
H -0.7923126285 -0.0449052303 2.5902060264
O -0.0000042590 0.0001380183 -1.9932618796
H -0.7923105403 0.0449051309 -2.5902070700
H 0.7922901725 -0.0448819220 -2.5902037634
