26
# extracted from Terachem optimization
Co -0.0012394531 0.0021200176 0.1216081654
C 0.4396815743 2.2694430366 -0.0136018569
O 0.7099662603 3.3563367479 -0.1428685330
C 2.2533097334 -0.4833108653 0.0458999008
O 3.3603960282 -0.6873039580 -0.0114494069
C -0.4423812101 -2.2641562817 -0.0130609995
O -0.7150769457 -3.3505063926 -0.1417568852
C -2.2565646930 0.4878068088 0.0450577891
O -3.3631139368 0.6951439118 -0.0103065380
C -0.0007596217 -0.0001609988 -2.0540543597
N 0.0008369051 -0.0015652647 -3.2131912148
C 0.0044650306 -0.0063313414 -4.6471751994
H -0.6296374988 -0.8257531274 -4.9950552838
H 1.0305794689 -0.1530368224 -4.9939533771
H -0.3854479179 0.9503607436 -5.0035357238
C 0.0000593839 0.0004736039 4.9821216166
C -0.5912781741 1.0497561371 4.2726241004
C -0.5736187721 1.0141843229 2.8862824587
N -0.0011931428 0.0024243528 2.1859352494
C 0.5715450305 -1.0105578924 2.8842875492
C 0.5907157618 -1.0478531700 4.2705718136
H 0.0003807888 0.0001374684 6.0680311454
H -1.0606861540 1.8838561374 4.7831414368
H -1.0286344967 1.8135655024 2.3095638991
H 1.0269336543 -1.8092926703 2.3067982796
H 1.0601713430 -1.8824970920 4.7801826033
