37
# extracted from Terachem optimization
Co -0.0065100461 0.0002011999 0.0009648794
N 0.2089385061 2.1958023417 0.1460600238
N 2.1872930911 0.2288341021 -0.1567976285
C 2.5350883814 1.6640839714 -0.4344421829
C 1.6438626090 2.5555428391 0.4104773989
H 1.8236039887 3.6122036633 0.1827389068
H 1.8349926704 2.4155967757 1.4788358402
H 2.3863287739 1.8468630310 -1.5031248915
H 3.5921254884 1.8528921541 -0.2158852894
H -0.0972411177 2.6412657442 -0.7257014914
H -0.3882720174 2.6039466302 0.8713749068
H 2.6393021259 -0.0667783925 0.7152835974
H 2.5966171551 -0.3711438587 -0.8791440667
N 0.1450827429 -2.1950808694 0.2169108560
N -0.1507832598 -0.2276191172 2.1953251485
C -0.4276210218 -1.6626835825 2.5446791001
C 0.4143118584 -2.5544939967 1.6509601047
H 0.1870730844 -3.6111038354 1.8316492292
H 1.4833040638 -2.4146701849 1.8387016739
H -1.4968143008 -1.8451718527 2.3991777905
H -0.2059541918 -1.8511516264 3.6011262858
H -0.7266817035 -2.6420864436 -0.0869279123
H 0.8695136302 -2.6013868426 -0.3825631252
H 0.7236226984 0.0675179628 2.6431802184
H -0.8707715521 0.3729630922 2.6078842002
N -2.2019971292 0.1419077496 -0.2142755847
N -0.2342906236 -0.1502181799 -2.1932423764
C -1.6686127511 -0.4307947295 -2.5420318227
C -2.5623794844 0.4092835727 -1.6484380859
H -3.6184614114 0.1794355625 -1.8288524677
H -2.4251947764 1.4785207267 -1.8367892105
H -1.8485014053 -1.5003965786 -2.3963081294
H -1.8578658842 -0.2098454621 -3.5984904232
H -2.6453404824 -0.7317240332 0.0895955196
H -2.6116860277 0.8645907818 0.3850297555
H 0.0588107659 0.7243807623 -2.6419594298
H 0.3682243915 -0.8691961306 -2.6046941609
