37
# extracted from Terachem optimization
Co -0.0691046865 -0.0014616960 -0.0611275436
N 0.1984400185 2.3558424279 0.0802017087
N 1.9833197209 0.1176467793 -0.1336606234
C 2.4490830263 1.5095154720 -0.4393730657
C 1.6484368410 2.5208712268 0.3683964532
H 2.0090529035 3.5323751430 0.1498332378
H 1.8041001758 2.3557768782 1.4406284702
H 2.3026849990 1.6784736095 -1.5113249104
H 3.5196876919 1.6164053125 -0.2375518572
H -0.0236276129 2.8564110578 -0.7829390894
H -0.3376637806 2.8453936768 0.7981722199
H 2.4094311777 -0.1832063720 0.7458683618
H 2.3766596674 -0.5191152251 -0.8290027254
N 0.0534751757 -2.3604508748 0.1926058391
N -0.0868877300 -0.1297911227 1.9945286646
C -0.4005444456 -1.5194126655 2.4602226461
C 0.3730815653 -2.5377040258 1.6346263493
H 0.1483451702 -3.5478895255 1.9951572392
H 1.4510809569 -2.3886193857 1.7642653563
H -1.4780407262 -1.6715936444 2.3384769240
H -0.1744629709 -1.6358780128 3.5250596260
H -0.8193335090 -2.8510829123 -0.0134072743
H 0.7539480509 -2.8536006574 -0.3630551179
H 0.8088709657 0.1541192555 2.3980012443
H -0.7608981537 0.5155863429 2.4103383309
N -2.1066348299 0.0517835544 -0.1424634878
N -0.1923253706 -0.0423896650 -2.1014253050
C -1.6016979842 -0.3696099051 -2.4882549786
C -2.5253741239 0.3768939505 -1.5437290305
H -3.5737872353 0.1195743711 -1.7227767487
H -2.4201284612 1.4579146273 -1.6766390966
H -1.7312850908 -1.4507709309 -2.3803013318
H -1.8056706304 -0.1126408236 -3.5323420654
H -2.5240484060 -0.8399948661 0.1339818472
H -2.5101627309 0.7422250636 0.4930310788
H 0.0685575702 0.8547464543 -2.5174893160
H 0.4365394870 -0.7260560119 -2.5262448617
