39
# extracted from Terachem optimization
Cr -0.0939087953 0.1420223384 -0.1525272668
C 0.1699963910 2.1870912432 -0.3774475734
N 0.2772937354 3.3409159164 -0.5004067111
C 0.3803388261 4.7576931310 -0.6675694757
H 1.0755755558 4.9732813104 -1.4827704257
H 0.7542900840 5.2026149159 0.2579372858
H -0.6047309397 5.1677333763 -0.9038326386
C 1.9204314532 -0.1480594177 0.2227004223
N 3.0458965007 -0.3456636472 0.4494328956
C 4.4222478338 -0.6123306980 0.7308951533
H 4.8257314921 -1.2647701296 -0.0475794793
H 4.4987226470 -1.1098317991 1.7012021551
H 4.9792855027 0.3275182691 0.7513636890
C -0.3833177168 -1.8875272914 0.1811452029
N -0.5243829202 -3.0183265435 0.4203485818
C -0.6786458728 -4.4078427504 0.7195718389
H -1.6450442667 -4.7560845902 0.3468408822
H -0.6306018067 -4.5469013218 1.8026181908
H 0.1281083944 -4.9696746515 0.2423949402
C -2.1251767982 0.4068737729 -0.4484914623
N -3.2696861542 0.5541832596 -0.6128582978
C -4.6732719896 0.7362505293 -0.8185965699
H -4.9697051253 1.7189848629 -0.4438791763
H -5.2216006092 -0.0455037993 -0.2870394207
H -4.8883641153 0.6733378665 -1.8884282703
O -0.3739692478 0.3610867201 1.9416226087
H 0.1791419249 0.9910534025 2.4337635955
H -1.2827617028 0.4699674375 2.2694799778
C 0.6467046193 -0.6223972077 -4.9428574012
C -0.3910819459 -1.2685038506 -4.2703213748
C -0.5745545400 -1.0194877399 -2.9157803773
N 0.2126727266 -0.1732027726 -2.2137232967
C 1.2158827300 0.4497480646 -2.8733955911
C 1.4626243078 0.2536488629 -4.2262659095
H 0.8157071036 -0.7973895060 -6.0008921092
H -1.0528470981 -1.9579493692 -4.7834539789
H -1.3717624365 -1.5056406728 -2.3657851224
H 1.8340050153 1.1206320554 -2.2886356791
H 2.2823948230 0.7796591410 -4.7037095400
