47
# extracted from Terachem optimization
Cr 0.0001920403 0.0007445205 0.0383188104
C -0.0530087356 2.6787551064 -0.0495170881
N 0.0070172387 3.8433324309 -0.1017587573
C 0.0831361739 5.2703017576 -0.1611117446
H 0.9064713901 5.5630183326 -0.8172737035
H 0.2583391235 5.6627810366 0.8435153848
H -0.8575245488 5.6673842696 -0.5504124717
C 2.1869564266 0.0426036642 0.0473723601
N 3.3488459765 0.0497687055 0.0522881652
C 4.7785937169 0.0524007419 0.0529873925
H 5.1362592920 -0.7760927294 -0.5634261951
H 5.1366463793 -0.0672516930 1.0783789990
H 5.1353602199 1.0000813123 -0.3576274785
C 0.0535468983 -2.6775312453 -0.0485531281
N -0.0068141073 -3.8420490672 -0.1007422198
C -0.0832688694 -5.2690972818 -0.1602173224
H -0.9068067864 -5.5613390281 -0.8163918599
H -0.2585143974 -5.6616829582 0.8444262305
H 0.8572716020 -5.6663755583 -0.5497676044
C -2.1863334686 -0.0419666308 0.0517396854
N -3.3482087900 -0.0507798228 0.0532220778
C -4.7779503701 -0.0557723284 0.0457908986
H -5.1281937740 -0.6785486347 -0.7809352709
H -5.1369826210 0.9682998198 -0.0837442153
H -5.1409002758 -0.4584059798 0.9945354053
C 0.0003517312 0.0003207194 5.0130862111
C -0.1396992459 1.1904559059 4.2997300156
C -0.1327414634 1.1482740490 2.9106250265
N 0.0028534002 0.0008770860 2.2092767769
C 0.1374845126 -1.1467658604 2.9104141128
C 0.1419734579 -1.1895017612 4.2995092771
H -0.0008421697 0.0000945728 6.0987844096
H -0.2528759035 2.1424442088 4.8070217801
H -0.2368490009 2.0525685725 2.3246376796
H 0.2425325828 -2.0507746051 2.3241650496
H 0.2542879832 -2.1416760372 4.8066422921
C -0.0009594007 0.0006039688 -4.9164949253
C 0.7144157805 -0.9624342856 -4.2044461853
C 0.6854290196 -0.9300882418 -2.8151096311
N -0.0025583641 -0.0002465154 -2.1186725195
C -0.6900786776 0.9297817577 -2.8152835046
C -0.7173846132 0.9630037249 -4.2046564788
H -0.0001698483 0.0010408352 -6.0021111949
H 1.2876260049 -1.7298981772 -4.7136661891
H 1.2194525918 -1.6706594993 -2.2300484407
H -1.2251661283 1.6697370929 -2.2304304514
H -1.2901419401 1.7306527339 -4.7140723051
