39
# extracted from Terachem optimization
Cr 0.0004312407 0.0017461926 -0.2555934972
O -0.0025172778 -0.0005031313 1.8890904076
H 0.6422729224 0.4458871115 2.4674046198
H -0.6704949477 -0.4119667261 2.4670974319
C 0.0255707302 2.1168343941 -0.0154160535
N 0.0273933174 3.2524386308 0.2133160990
C 0.0241066556 4.6625331050 0.4952875896
H 0.8754685132 5.1241601529 -0.0119258928
H 0.1061261292 4.8034964781 1.5763232195
H -0.9135448068 5.0899028502 0.1296999810
C 2.1158442171 -0.0233064684 -0.2319734172
N 3.2735436257 -0.0275593195 -0.2448574936
C 4.7103537738 -0.0330330054 -0.2679101443
H 5.0456293479 -0.8433735003 -0.9206902850
H 5.0764632242 -0.1906508074 0.7499776206
H 5.0581950740 0.9297425832 -0.6519095923
C -0.0250413989 -2.1116943493 -0.0115232838
N -0.0266153466 -3.2467044407 0.2197442429
C -0.0216367287 -4.6560719515 0.5024023326
H -0.8723541037 -5.1186299918 -0.0046649902
H -0.1030772658 -4.7972091635 1.5832944342
H 0.9164538580 -5.0817835680 0.1365404350
C -2.1172064698 0.0224165724 -0.2397572984
N -3.2750013369 0.0227226621 -0.2538377617
C -4.7119482036 0.0201294976 -0.2799385439
H -5.0443113562 -0.5719435693 -1.1367516131
H -5.0624439022 1.0513362345 -0.3734996061
H -5.0788491137 -0.4208083846 0.6506708713
C 0.0005091505 -0.0014450015 -5.0915584105
C -0.0952302491 1.1959387672 -4.3786504457
C -0.0924658666 1.1627885663 -2.9921748817
N 0.0057016864 0.0010152078 -2.2898395698
C 0.1022610019 -1.1619544975 -2.9904531171
C 0.0989356736 -1.1975910646 -4.3768912881
H -0.0024820330 -0.0025724138 -6.1775878006
H -0.1732812553 2.1517240520 -4.8864697626
H -0.1721636115 2.0794745834 -2.4252415564
H 0.1831429731 -2.0775824187 -2.4219223897
H 0.1725144987 -2.1545363821 -4.8832285226
