63
# extracted from Terachem optimization
Cr 0.0016456024 0.0027924290 -0.0028800179
O 0.3452107921 2.0290201729 -0.4586769645
H 1.3087822058 2.1462980311 -0.5623095861
H 0.0252826609 2.7587986468 0.0983159088
O 2.4171808991 0.0852892664 -0.4344218848
H 2.8470156245 -0.1755873047 -1.2664117664
H 3.0887287147 -0.0417717861 0.2572478356
O -0.3418408663 -2.0233022495 0.4538456801
H -0.0219770754 -2.7534582065 -0.1027634048
H -1.3056587902 -2.1402269939 0.5562648958
O -2.4145447977 -0.0798704368 0.4286130589
H -2.8448411239 0.1807035982 1.2604468633
H -3.0858682351 0.0466815807 -0.2633536857
C 0.3519347157 0.3209303561 2.1080904542
N 0.5481645680 0.4258900874 3.2537240027
C 0.7810708196 0.5238972627 4.6150545753
C 0.9730082221 1.7863792969 5.1996675454
C 1.2050566419 1.8606132858 6.5639939976
C 1.2546002164 0.7097483108 7.3799120981
C 1.5206207090 0.8505945124 8.8852318963
C 2.9036911957 1.5192511173 9.0874076450
C 0.4183859866 1.7417678545 9.5111661281
C 1.5190069001 -0.5092683537 9.6085897262
C 1.0567309960 -0.5355787655 6.7558875144
C 0.8215512307 -0.6429005374 5.3900183017
H 0.9394840333 2.6839675850 4.5904893049
H 1.3515180630 2.8397397017 7.0066604475
H 3.7068468622 0.9093409674 8.6594007095
H 3.1031224406 1.6360851546 10.1577017089
H 2.9511838305 2.5136872414 8.6317692401
H -0.5739760101 1.2958029866 9.3830401031
H 0.3995693674 2.7459281570 9.0753705427
H 0.6024821941 1.8527612337 10.5847352353
H 0.5544604615 -1.0212401317 9.5172117896
H 1.7028768088 -0.3532940396 10.6758265769
H 2.3066635152 -1.1753266338 9.2383885227
H 1.0857086421 -1.4462670932 7.3409031024
H 0.6725867198 -1.6129219499 4.9265717502
C -0.3488343523 -0.3151450235 -2.1138318430
N -0.5449093633 -0.4212639132 -3.2593833234
C -0.7786764810 -0.5211970217 -4.6204514693
C -0.9711560802 -1.7845272910 -5.2030623487
C -1.2044402495 -1.8607324004 -6.5670593018
C -1.2548871284 -0.7110218725 -7.3845656556
C -1.5229662930 -0.8539230486 -8.8892990484
C -0.4231230022 -1.7477475257 -9.5155072776
C -2.9074677087 -1.5207233117 -9.0882535814
C -1.5203611089 0.5047643933 -9.6148707666
C -1.0562971709 0.5351743677 -6.7625097460
C -0.8197763054 0.6444984874 -5.3970285461
H -0.9369996135 -2.6812410548 -4.5926305445
H -1.3513325611 -2.8404869446 -7.0081848860
H 0.5701317459 -1.3031598589 -9.3895271109
H -0.6089642638 -1.8600165709 -10.5886470582
H -0.4051721193 -2.7513453290 -9.0783911714
H -3.7088733059 -0.9092051121 -8.6592656886
H -2.9554993649 -2.5146446358 -8.6315346635
H -3.1090904307 -1.6382203396 -10.1580601911
H -2.3054327438 1.1732589785 -9.2435924194
H -1.7077204634 0.3474589278 -10.6813057085
H -0.5543919672 1.0147188823 -9.5271015803
H -1.0855598436 1.4449838750 -7.3488741154
H -0.6702165897 1.6151630953 -4.9351221530
