42
# extracted from Terachem optimization
Cr -0.0034491641 0.0045331961 0.1546897686
C 0.1931149297 2.1055857819 0.0554576142
N 0.3103500117 3.2559087613 -0.0071901946
C 0.4629101909 4.6821398640 -0.0808085751
H 1.4037790671 4.9074195982 -0.5896108054
H 0.4777264104 5.0866071900 0.9345750234
H -0.3783296457 5.0973623047 -0.6418537316
C 2.1039753121 -0.1301784975 0.0552088053
N 3.2598683933 -0.1652605300 -0.0050886368
C 4.6943047775 -0.1969393282 -0.0706509330
H 5.0001776789 -1.0409766777 -0.6943165641
H 5.0886654139 -0.3121681384 0.9423653290
H 5.0449211958 0.7422468289 -0.5068493822
C -0.1981634419 -2.0982429372 0.0700876624
N -0.3120476968 -3.2489559818 0.0078734876
C -0.4585454520 -4.6756822142 -0.0709939943
H -1.4059768214 -4.9027201901 -0.5667092324
H -0.4557187250 -5.0867369276 0.9418421698
H 0.3762213512 -5.0828185214 -0.6475484332
C -2.1118837351 0.1364628967 0.0569616146
N -3.2670983561 0.1686074284 -0.0165783668
C -4.7004352002 0.1933620491 -0.1032568073
H -5.0176602948 -0.5339541428 -0.8551090624
H -5.0197581876 1.1980546892 -0.3923680284
H -5.1148857246 -0.0701273199 0.8733037800
C -0.0062973129 -0.0045818980 -1.9774047729
N -0.0033268673 -0.0086182802 -3.1356198076
C 0.0054150158 -0.0123874026 -4.5716478852
H -0.7139523948 -0.7550397330 -4.9262484132
H 1.0112189850 -0.2675485164 -4.9153081374
H -0.2733106218 0.9829809740 -4.9271280028
C -0.0064257571 -0.0050532013 5.0155667788
C -0.8065565182 0.8931642684 4.3046475268
C -0.7748199420 0.8748694104 2.9176465896
N 0.0070620274 0.0113895008 2.2189469257
C 0.7860514193 -0.8566875160 2.9153880787
C 0.8045840132 -0.8915477467 4.3021660192
H -0.0150702783 -0.0134234874 6.1016088680
H -1.4504131960 1.6007993255 4.8163272711
H -1.3839827083 1.5616881706 2.3413692167
H 1.4025625504 -1.5353573514 2.3375233486
H 1.4445936940 -1.6048540374 4.8108255182
