54
# extracted from Terachem optimization
Cr 0.0292194690 -0.0200617810 0.1358887921
C 0.0736309789 0.0214643572 -2.0325074818
N 0.0873365186 0.0772788496 -3.1894592626
C 0.0946369080 0.1512874198 -4.6260738581
H -0.4809409322 -0.6897914359 -5.0219333581
H 1.1291890272 0.0958025746 -4.9753033907
H -0.3549934959 1.1009596200 -4.9280029210
O 0.0479552102 2.0132889541 0.0252637183
C -1.0841304161 2.8691306843 -0.1154391057
C -0.6602180854 4.1051605304 -0.4308903042
C 0.7820146222 4.0742071622 -0.5213744616
C 1.1907155597 2.8216242946 -0.2539910520
H -2.0360672033 2.4091709661 0.0847606257
H -1.2961889104 4.9695726161 -0.5767362584
H 2.1411359092 2.3230173746 -0.1840678109
H 1.4284975606 4.9119683303 -0.7508110968
O 2.1061729289 -0.0388464358 0.1725629530
C 2.9432038644 0.1542381563 1.3125339234
C 4.2287560857 0.0169163945 0.9424881540
C 4.2582716510 -0.2781833302 -0.4714053041
C 2.9895418808 -0.3100962473 -0.9136965271
H 2.4305705348 0.3740218978 2.2310874710
H 5.0862694279 0.1133258529 1.5965402720
H 2.5201815384 -0.5045710421 -1.8608009425
H 5.1399940572 -0.4456244621 -1.0772694034
O 0.0404883156 -2.0588880560 0.0613113753
C 1.1689264122 -2.9113501590 0.2449884143
C 0.7868266468 -4.1856688635 0.0492381564
C -0.6223860697 -4.1871430077 -0.2710334111
C -1.0531817432 -2.9138342437 -0.2581311080
H 2.0839764669 -2.4154910977 0.5168714350
H 1.4279579521 -5.0548837199 0.1251623393
H -1.9981710386 -2.4220336109 -0.4053775034
H -1.2342076193 -5.0553864733 -0.4816019026
O -2.0817976261 -0.0164701789 0.0989872344
C -2.9217027685 -0.1671391896 -1.0433823417
C -4.2032627305 0.0305385296 -0.6862211175
C -4.2265527592 0.3296053100 0.7257896300
C -2.9606556965 0.2957010708 1.1773543699
H -2.4234750392 -0.4234321221 -1.9610320852
H -5.0599475602 -0.0308634295 -1.3456834942
H -2.4913346158 0.4428510175 2.1321203444
H -5.1030821424 0.5377917538 1.3265088966
C -0.2562126883 -0.0073852376 4.9956437489
C -0.0665648185 1.1861218165 4.2912635062
C 0.0232089806 1.1505235133 2.9074173466
N -0.0666170301 -0.0148902862 2.2019657076
C -0.2501184496 -1.1739313839 2.8932849711
C -0.3487786338 -1.2022038730 4.2780029922
H -0.3289080960 -0.0039609251 6.0792234613
H 0.0116770642 2.1398325690 4.8041455966
H 0.1754703472 2.0609031193 2.3438715915
H -0.3204726488 -2.0885887953 2.3221841184
H -0.4962312027 -2.1534766064 4.7794440535
