40
# extracted from Terachem optimization
Cr 0.0207243895 -0.0034103001 0.0022415457
C 0.0683704270 2.0610325509 0.0534764923
N 0.0992393074 3.2230203016 0.1157403047
C 0.1448220831 4.6497305176 0.1954732965
H 0.9524296850 5.0225954652 -0.4389823661
H 0.3262775883 4.9411479679 1.2331917005
H -0.8102885728 5.0617899626 -0.1392029326
C 2.0881109555 -0.0300120981 -0.0251705351
N 3.2516472809 -0.0228813518 -0.0461326972
C 4.6806334411 0.0072141807 -0.0833127168
H 5.0439364581 -0.8056776935 -0.7169110794
H 5.0658250045 -0.1169617076 0.9321048438
H 5.0088513248 0.9680868765 -0.4876858762
C -0.0138700522 -2.0717240818 0.0142726185
N -0.0503062024 -3.2340409774 0.0639861882
C -0.1080367410 -4.6613737291 0.1286326652
H -0.9165837655 -5.0167098105 -0.5151643041
H -0.3014863803 -4.9630557312 1.1614411072
H 0.8441075836 -5.0799391008 -0.2063173069
C -2.0470007029 0.0114945656 0.0034122220
N -3.2107147135 -0.0008573118 0.0143813563
C -4.6396699823 -0.0324294378 0.0306827741
H -5.0217058024 0.9454851149 0.3329244480
H -4.9706632892 -0.7959649897 0.7390258721
H -5.0042166931 -0.2792576755 -0.9695660666
C -0.0435111289 0.0291412908 2.0746738609
N -0.0725303844 0.0397486463 3.2358924088
C -0.1068424903 0.0500978444 4.6649804141
H 0.5127897892 -0.7665962992 5.0431760899
H -1.1391170484 -0.0818859984 4.9977693803
H 0.2798316966 1.0066343904 5.0245989932
O 0.0307896546 -0.0003751700 -2.1854135854
C -0.7222552353 0.8348261848 -3.0110870907
C -0.4758620751 0.5347386050 -4.3045026805
C 0.4792618073 -0.5435368021 -4.3150549914
C 0.7618975101 -0.8376781427 -3.0276848517
H -1.3445527008 1.5540590420 -2.5046415206
H -0.9149901944 1.0191882605 -5.1656722762
H 1.3997896180 -1.5526722640 -2.5360056792
H 0.8924565871 -1.0310320840 -5.1870537043
