63
# extracted from Terachem optimization
Cr 0.0121582028 0.0127235274 0.0021384777
O 0.2998314971 2.0274665212 0.2383167176
H 1.2155650975 2.3312670813 0.3808534193
H -0.2897433538 2.6245025912 0.7338084850
O 2.0315422586 -0.2119790878 0.3381671145
H 2.6913397813 -0.3571284294 -0.3631728598
H 2.4022868347 -0.5310503795 1.1806605641
O -0.2966632835 -1.9930921075 -0.2482529390
H 0.3466590900 -2.6402745804 -0.5881870144
H -1.1922996588 -2.2954757615 -0.4856477781
O -2.0091428547 0.2193675046 -0.3451613435
H -2.6643051943 0.3624576210 0.3612483965
H -2.3648379020 0.5958093110 -1.1705664023
C -0.3496338572 -0.2447997498 2.0306121892
N -0.5572944280 -0.4154260660 3.1725839364
C -0.8060046851 -0.6140001457 4.5056254105
C -0.7403720269 0.4822036584 5.3978173534
C -1.0054708679 0.2676793730 6.7332977605
C -1.3450785921 -1.0205607463 7.2390791388
C -1.6484317358 -1.1966822795 8.7152052199
C -0.4067687247 -0.7414701043 9.5422623567
C -2.8577375026 -0.2807984256 9.0813386120
C -1.9913676603 -2.6488223182 9.0914837871
C -1.3914092112 -2.0950239880 6.3122917827
C -1.1295652596 -1.9103183503 4.9680029142
H -0.4865416636 1.4715978127 5.0316866071
H -0.9546118752 1.1100271082 7.4135306737
H 0.4663227470 -1.3634565833 9.3206662978
H -0.6418878281 -0.8491102634 10.6055831340
H -0.1432332135 0.3059072589 9.3673369286
H -3.7538978619 -0.5639977675 8.5199812161
H -2.6530652770 0.7787136498 8.9002856594
H -3.0712539061 -0.3992746901 10.1480803490
H -2.8857619439 -3.0124002444 8.5730207525
H -2.1997891891 -2.7016570612 10.1634548293
H -1.1612297196 -3.3355064713 8.8914130341
H -1.6396567817 -3.0907848240 6.6582612681
H -1.1722785615 -2.7430383212 4.2734385084
C 0.3730053316 0.2763798036 -2.0256739048
N 0.5745860683 0.4413472295 -3.1694812215
C 0.8153045018 0.6303017875 -4.5053914976
C 0.7658227538 -0.4766622744 -5.3853028258
C 1.0223468110 -0.2723102650 -6.7240039120
C 1.3384795502 1.0160063213 -7.2449929928
C 1.6332586165 1.1811740625 -8.7240213170
C 2.8513366551 0.2762034253 -9.0881119006
C 0.3924410415 0.7027222741 -9.5395001508
C 1.9575440296 2.6333654243 -9.1162100564
C 1.3687943921 2.1013513720 -6.3301209875
C 1.1142524662 1.9269905750 -4.9830740192
H 0.5306146828 -1.4661361329 -5.0071823196
H 0.9835735107 -1.1229444642 -7.3946721227
H 3.7480695146 0.5788994803 -8.5379626299
H 3.0547180024 0.3833184739 -10.1580164345
H 2.6626003639 -0.7834685185 -8.8914885253
H -0.4864390324 1.3174039376 -9.3204372057
H 0.1417284020 -0.3453563874 -9.3505837259
H 0.6210079967 0.8005076154 -10.6052031929
H 1.1198135178 3.3122465599 -8.9212534640
H 2.1629476821 2.6774976638 -10.1891391949
H 2.8486068270 3.0124384254 -8.6032251839
H 1.5986996441 3.0974035817 -6.6876964412
H 1.1440465012 2.7680618871 -4.2979604340
