52
# extracted from Terachem optimization
Cr -0.0477816146 0.0519765884 -0.0956659884
C 0.1175564538 0.0153202392 2.0027781216
N 0.2244537044 -0.0022860077 3.1548703019
C 0.3647831002 -0.0283717176 4.5864320827
H 1.0002587485 -0.8759462148 4.8577872174
H -0.6272105315 -0.1422210849 5.0323125568
H 0.8214342672 0.9112557924 4.9090216983
O -0.0661723696 2.0765086569 0.0226199475
C 1.0209880900 2.8965582192 0.4522788907
C 0.6056246669 4.1727017529 0.5133124677
C -0.7872269583 4.2107669544 0.1248167368
C -1.1797344117 2.9556990791 -0.1568154016
H 1.9479509253 2.3798597399 0.6274308852
H 1.2163565984 5.0202697502 0.7994602415
H -2.0912765602 2.4861241194 -0.4855362945
H -1.4111703487 5.0938894266 0.0630295919
O 2.0094293181 0.0851568037 -0.2413398649
C 2.9860030855 -0.4073533524 0.6760508327
C 4.2037327759 -0.3075133751 0.1158886645
C 4.0440253832 0.2577363889 -1.2049614543
C 2.7347847118 0.4824435851 -1.4069892152
H 2.6063870201 -0.7867831837 1.6082888719
H 5.1360688857 -0.6007185617 0.5819089793
H 2.1525822335 0.9110811920 -2.2038760640
H 4.8341522856 0.4701096932 -1.9146979383
O -0.0100259076 -1.9850908480 -0.0375666335
C -0.9206831350 -2.7783605686 0.7235174867
C -0.4165461266 -4.0171517899 0.8514826065
C 0.8601498408 -4.0541699334 0.1719655471
C 1.0957434756 -2.8344091608 -0.3433493255
H -1.8302646727 -2.2835527752 1.0202495356
H -0.8974644665 -4.8429612115 1.3605352663
H 1.8816606632 -2.3826198599 -0.9250609305
H 1.5112527112 -4.9142248961 0.0745796934
O -2.0891915402 0.0244605838 -0.0261981471
C -2.9137352436 0.3487021395 1.0951619042
C -4.1668643944 -0.0718800082 0.8474290837
C -4.1814642189 -0.6976292406 -0.4567964548
C -2.9382287201 -0.6358357231 -0.9639890521
H -2.4359299043 0.9120740535 1.8787362410
H -5.0169047374 0.0585064875 1.5051475793
H -2.4662215234 -0.9358232483 -1.8841389175
H -5.0433631070 -1.1236074074 -0.9555493523
O -0.1791128261 0.0745460966 -2.1487514684
C -0.1032336445 -1.0467368312 -3.0292442380
C -0.1544183954 -0.6092174537 -4.2996906598
C -0.2662712874 0.8311222007 -4.2716703692
C -0.2833187043 1.2241250929 -2.9852777489
H -0.0321855004 -2.0063277392 -2.5468825347
H -0.1212664921 -1.2334364445 -5.1839202236
H -0.3673906963 2.1678266722 -2.4746209688
H -0.3317211542 1.4855560873 -5.1315836883
