15
# extracted from Terachem optimization
Cr -0.0000000625 -0.0000001640 -0.0000002243
C 0.0000001781 2.1891943592 0.0000034200
O -0.0000000167 3.3103814710 0.0000001593
C 2.1993886392 0.0000000987 -0.0000002809
O 3.3204444204 -0.0000000398 0.0000002866
C 0.0000000465 -2.1891923829 -0.0000034522
O -0.0000000409 -3.3103827308 0.0000001208
C -2.1993521648 -0.0000000351 0.0000000631
O -3.3204817145 -0.0000002397 -0.0000001279
O -0.0000008509 -0.0000158916 1.9955375738
H 0.7853558973 0.0305446074 2.5944439507
H -0.7853596674 -0.0305380267 2.5944434029
O 0.0000023428 0.0000156886 -1.9955377975
H -0.7853562014 0.0305379313 -2.5944433930
H 0.7853591978 -0.0305446458 -2.5944437023
