59
# extracted from Terachem optimization
Cr -0.0037683792 -0.0214139640 -0.0152638406
O -0.0099291713 2.2524178218 -0.0149261205
C -1.1289431463 3.0846761985 0.0878703132
C -0.7382417535 4.3774789554 0.0493895284
C 0.6960469434 4.3849077783 -0.0831353096
C 1.1002646186 3.0961288706 -0.1200410264
H -2.0724325622 2.5734348055 0.1847341854
H -1.3876735880 5.2400403643 0.1093610451
H 2.0493908199 2.5949126503 -0.2166637967
H 1.3363451863 5.2543871955 -0.1421911320
O 2.2517906306 -0.0234081915 0.0304193460
C 3.0548271315 -0.3093617145 1.1410671631
C 4.3581266098 -0.1969537622 0.8042569299
C 4.4068349661 0.1845857555 -0.5836370636
C 3.1307897664 0.2778609810 -1.0168638642
H 2.5204910446 -0.5567831475 2.0422980929
H 5.2013938920 -0.3624705844 1.4607344403
H 2.6645444529 0.5158720080 -1.9578215291
H 5.2941601401 0.3612334932 -1.1761575695
O -0.0117602583 -2.2919842765 -0.0162866962
C 1.0898362240 -3.1401259931 0.1337427174
C 0.6828420893 -4.4269864053 0.0687530288
C -0.7433198092 -4.4129547206 -0.1320915235
C -1.1277078786 -3.1185817131 -0.1789803543
H 2.0351485991 -2.6433000524 0.2792040016
H 1.3156290218 -5.2996990296 0.1534202923
H -2.0639451108 -2.6031496059 -0.3164120661
H -1.3915474458 -5.2726572698 -0.2301651477
O -2.2553301154 -0.0213332653 -0.0659380943
C -3.1373416647 0.2597940891 0.9841447060
C -4.4118390395 0.1724841735 0.5455096120
C -4.3587191134 -0.1850864901 -0.8485384459
C -3.0545099964 -0.2889432572 -1.1844180947
H -2.6730989039 0.4826422827 1.9297221859
H -5.3008575693 0.3388194520 1.1379465181
H -2.5169055197 -0.5206132817 -2.0882195469
H -5.1998406064 -0.3427512417 -1.5095916411
C -0.1071310786 -0.0199049189 4.9412240824
C -0.4873333700 -1.1536998239 4.2220833766
C -0.4521364346 -1.1164347455 2.8331583013
N -0.0638393842 -0.0210984516 2.1353948788
C 0.3003535177 1.0756233247 2.8444562066
C 0.2930160838 1.1142830888 4.2335806929
H -0.1220517617 -0.0204435389 6.0268347285
H -0.8081770596 -2.0600400226 4.7241772997
H -0.7445317255 -1.9800898743 2.2497315845
H 0.6098455274 1.9391731337 2.2697126245
H 0.5991298838 2.0208901921 4.7446044626
C 0.1878671443 0.0112473971 -4.9675869424
C -0.2362971209 1.1372980653 -4.2606963799
C -0.2832603290 1.0848798360 -2.8728678424
N 0.0688533336 -0.0160420296 -2.1640623766
C 0.4767434540 -1.1046515452 -2.8610369334
C 0.5487648937 -1.1293514864 -4.2489925165
H 0.2360917165 0.0226248403 -6.0522624144
H -0.5298889316 2.0483875822 -4.7712770686
H -0.6146864462 1.9408509075 -2.2991651775
H 0.7565577512 -1.9728238440 -2.2778797509
H 0.8834482016 -2.0309988854 -4.7509099787
