25
# extracted from Terachem optimization
Cr -0.0000007474 0.0007464903 -0.0000029505
O -0.0000006361 2.0157552375 0.0000007014
H 0.7039752107 2.5918183619 -0.3605327760
H -0.7039803670 2.5918151703 0.3605318575
O 2.0170889656 -0.0152211082 -0.0106834728
H 2.6087588275 0.0232214894 -0.7903192632
H 2.5871844949 -0.0201342547 0.7865232520
O -0.0000001489 -2.0112656191 0.0000019666
H 0.7247475104 -2.5862949079 -0.3190371402
H -0.7247481379 -2.5862966335 0.3190381338
O -2.0170870530 -0.0152239156 0.0106847705
H -2.6087585486 0.0232206680 0.7903188754
H -2.5871804718 -0.0201374743 -0.7865221475
C -0.0058729476 0.0035924533 2.1277530735
N -0.0048537611 0.0023396911 3.2851306928
C 0.0027511849 0.0004215318 4.7252679321
H 0.6122724462 -0.8420424453 5.0653606074
H -1.0279510603 -0.1085402068 5.0770632822
H 0.4263213722 0.9482232611 5.0702003224
C 0.0058711680 0.0035938145 -2.1277543487
N 0.0048563039 0.0023413740 -3.2851265500
C -0.0027503700 0.0004224681 -4.7252703478
H -0.6122738764 -0.8420418237 -5.0653578537
H 1.0279521554 -0.1085382968 -5.0770658158
H -0.4263215179 0.9482246662 -5.0702028274
