67
# extracted from Terachem optimization
Cr -0.0175629751 0.0077692591 0.0014490137
C -0.0902130078 5.0023680296 0.1340238853
C 1.1183458617 4.3055597519 0.0689538340
C 1.1002892612 2.9173047525 0.0289678951
N -0.0477181800 2.1892053641 0.0489630708
C -1.2163686399 2.8795526046 0.1142811095
C -1.2762105066 4.2670193610 0.1588725872
H -0.1062604887 6.0879864162 0.1657433395
H 2.0705592840 4.8258522685 0.0497694446
H 2.0201018170 2.3539167230 -0.0118150898
H -2.1197942261 2.2911572931 0.1260837588
H -2.2432566827 4.7567200619 0.2101416044
C 4.9843104685 -0.0875169214 -0.0275896650
C 4.2698388003 -0.3274692002 1.1471202646
C 2.8817685865 -0.2733144261 1.1212611422
N 2.1711363552 0.0020851994 -0.0039110112
C 2.8790623935 0.2370852557 -1.1405495161
C 4.2671973675 0.2022394286 -1.1898389232
H 6.0696664018 -0.1230929943 -0.0366458861
H 4.7762300949 -0.5561872197 2.0790044227
H 2.3068266692 -0.4706935445 2.0134845132
H 2.3027792363 0.4686813176 -2.0243954175
H 4.7706059891 0.3982406842 -2.1309858224
C -0.0449263819 -4.9879351213 -0.1156447638
C -1.2370112848 -4.2656888671 -0.0394717052
C -1.1901043933 -2.8777843569 -0.0058365774
N -0.0279678795 -2.1738029505 -0.0446285203
C 1.1249744919 -2.8887808815 -0.1243879064
C 1.1556802130 -4.2771461508 -0.1593483855
H -0.0517715885 -6.0737288909 -0.1413917433
H -2.1997757414 -4.7647860224 -0.0043840693
H -2.0976174475 -2.2981327032 0.0611715960
H 2.0376144453 -2.3153633264 -0.1738936820
H 2.1110385466 -4.7875075405 -0.2205657109
C -5.0022965374 -0.0062701193 0.0093794318
C -4.2879172470 -0.0814852997 -1.1873278177
C -2.8990365757 -0.0767941118 -1.1505179721
N -2.1902489513 0.0009834816 0.0060790686
C -2.8972545503 0.0788163515 1.1647689532
C -4.2856273128 0.0770534213 1.2047551766
H -6.0880459085 -0.0104065166 0.0102913698
H -4.7955094428 -0.1441210786 -2.1442039465
H -2.3212224803 -0.1397291042 -2.0601049366
H -2.3181854958 0.1509846008 2.0731020155
H -4.7904410037 0.1420673206 2.1629735955
C 0.1561265119 -0.0894457128 4.9820712680
C 0.3165462665 1.1082203069 4.2837524113
C 0.2450446838 1.0999496526 2.8962815230
N 0.0178818402 -0.0270412069 2.1729208479
C -0.1392926946 -1.1871320614 2.8644166072
C -0.0760875055 -1.2556390391 4.2501932593
H 0.2112551323 -0.1144842891 6.0664479409
H 0.4971120513 2.0438392810 4.8024779300
H 0.3776212495 2.0100663773 2.3319082016
H -0.3214110774 -2.0756063574 2.2788382090
H -0.2074780649 -2.2144051535 4.7409122576
C 0.0609132319 0.1288275742 -4.9851180558
C 0.1684873025 -1.0816733596 -4.2987712348
C 0.1343327322 -1.0800195890 -2.9100483482
N -0.0050321264 0.0527210282 -2.1735722767
C -0.1127724675 1.2252268320 -2.8536677465
C -0.0819735501 1.3010316379 -4.2403621806
H 0.0881300229 0.1579116490 -6.0702667148
H 0.2783043502 -2.0228706122 -4.8272865825
H 0.2158745183 -2.0016815404 -2.3548709288
H -0.2280312854 2.1171368771 -2.2572142463
H -0.1699526366 2.2690432826 -4.7225973348
