31
# extracted from Terachem optimization
Cr 0.0000208116 0.0001137053 -0.0003873587
C -0.0009314209 2.0951398838 -0.0010600217
N -0.0008958371 3.2581540495 -0.0008212653
C -0.0001141368 4.6890335722 -0.0011417495
H 0.8364660087 5.0475346017 -0.6059707399
H 0.1087578671 5.0446696782 1.0266760791
H -0.9430213015 5.0499040822 -0.4192168680
C 2.0832995093 0.0008820064 -0.0002122392
N 3.2473556744 0.0005642889 0.0000990225
C 4.6785371980 0.0003158300 -0.0018932333
H 5.0367175231 -0.8368739961 -0.6056613977
H 5.0349565760 -0.1091554717 1.0253990929
H 5.0386870394 0.9437177090 -0.4187883068
C 0.0009301976 -2.0953129531 -0.0009806875
N 0.0008978597 -3.2582802774 -0.0006673160
C 0.0000717166 -4.6892350579 -0.0011124665
H -0.8364475681 -5.0477746825 -0.6060021117
H -0.1088505888 -5.0450247029 1.0266282930
H 0.9429723116 -5.0502424802 -0.4190620927
C -2.0832233193 -0.0001346014 -0.0000813411
N -3.2473141771 -0.0000939889 -0.0001548924
C -4.6784217740 0.0009743411 0.0019223735
H -5.0385972777 0.9911823672 0.2903165620
H -5.0361561060 -0.7486768089 0.7117717694
H -5.0356381389 -0.2448642173 -1.0012415206
O -0.0011656334 -0.0007854802 2.1280213337
H 0.7804398252 0.0344881587 2.7041280568
H -0.7834394541 -0.0319288493 2.7035116233
O 0.0011494346 -0.0008535790 -2.1275798093
H -0.7804959557 0.0361936027 -2.7034967319
H 0.7834521021 -0.0336307340 -2.7029120738
