31
# extracted from Terachem optimization
Cr 0.0000030469 -0.0000443041 -0.0001061444
O -0.0001292729 -0.0002063465 2.4786434208
H 0.7680602512 0.0349690661 3.0725721083
H -0.7686790658 -0.0328602384 3.0722653217
O 0.0001135659 -0.0002090470 -2.4784714149
H -0.7679746421 0.0369917842 -3.0724110316
H 0.7685690688 -0.0349034774 -3.0721028136
C -0.0015171081 2.1584144290 -0.0010314131
N -0.0009611614 3.3189999240 -0.0009514032
C 0.0004756289 4.7495236775 0.0004190895
H 0.8365268653 5.1049702762 -0.6066027872
H 0.1086729373 5.1042817925 1.0280999285
H -0.9427952783 5.1066615340 -0.4196910777
C 2.1674494179 0.0013770999 -0.0010364291
N 3.3285112585 0.0005843940 -0.0001967785
C 4.7601895356 -0.0003098358 -0.0000565788
H 5.1153747666 -0.8366443672 -0.6070637452
H 5.1153909389 -0.1087491087 1.0276963138
H 5.1167806739 0.9433417302 -0.4199756967
C 0.0015237706 -2.1586114359 -0.0009953344
N 0.0009679325 -3.3191819263 -0.0009239711
C -0.0004736834 -4.7497410075 0.0004296708
H -0.8365269573 -5.1051961560 -0.6065910741
H -0.1086710497 -5.1045060420 1.0281135992
H 0.9428001735 -5.1068918810 -0.4196720758
C -2.1674220952 -0.0012699943 0.0010360180
N -3.3285309019 -0.0011546233 0.0007695050
C -4.7601834413 0.0000356478 -0.0003570869
H -5.1154445594 -0.6070922868 -0.8366186274
H -5.1153204554 1.0277053825 -0.1084249526
H -5.1167800896 -0.4202856999 0.9432324436
