22
# extracted from Terachem optimization
Cr -0.0303338574 -0.0269666579 0.2163452244
C 0.3071371907 2.0048551881 0.0957111826
O 0.5050187415 3.1149812773 0.0335400943
C 2.0051161671 -0.3434094371 0.0890548496
O 3.1210480179 -0.5055560417 0.0260052171
C -0.3764910657 -2.0603450851 0.1383886838
O -0.5831222663 -3.1699888624 0.0995016288
C -2.0678967638 0.2874214717 0.1316226258
O -3.1844844993 0.4494218102 0.0821785064
C 0.0704257443 0.0316450710 5.0341604752
C -0.6618269843 0.9898298917 4.3253973278
C -0.6765843573 0.9394279352 2.9411527007
N -0.0002344617 -0.0123397689 2.2351815126
C 0.7075120156 -0.9450707765 2.9359993236
C 0.7636772678 -0.9512317487 4.3200970524
H 0.0990889899 0.0493087913 6.1197099657
H -1.2189791312 1.7688751189 4.8352900484
H -1.2386725078 1.6723133560 2.3732599438
H 1.2367722775 -1.6986495440 2.3636480431
H 1.3422223482 -1.7168966590 4.8263928765
C -0.0491171243 -0.0350787693 -1.9961202180
O -0.0549890159 -0.0349818023 -3.1217151631
