37
# extracted from Terachem optimization
Cr 0.0003622478 0.0000510363 0.0396794397
C 0.0038160653 2.0926647688 0.0195509478
N 0.0045830519 3.2556041467 0.0183564186
C 0.0104654577 4.6858726991 0.0031127984
H 0.8463152238 5.0341492314 -0.6086895793
H 0.1240949745 5.0524889173 1.0263627669
H -0.9334681386 5.0452797444 -0.4142129591
C 2.0873084927 0.0051600384 0.0520581076
N 3.2509018035 0.0061805443 0.0424454892
C 4.6812258169 0.0107672556 0.0063707796
H 5.0264094388 -0.8251278539 -0.6072480554
H 5.0641336536 -0.0983322474 1.0242093291
H 5.0282469121 0.9549090258 -0.4205629578
C -0.0032646308 -2.0927502619 0.0186980246
N -0.0043838942 -3.2555514244 0.0178410242
C -0.0105314194 -4.6858878288 0.0030687430
H -0.8463992852 -5.0340990355 -0.6087555189
H -0.1242989033 -5.0521574873 1.0264387325
H 0.9334391964 -5.0455015425 -0.4139975006
C -2.0864915380 -0.0052210875 0.0518903168
N -3.2500857202 -0.0067727390 0.0430393089
C -4.6803967586 -0.0097361056 0.0094203377
H -5.0509493835 0.9795458416 0.2890301020
H -5.0556095494 -0.7604680899 0.7093430490
H -5.0086697919 -0.2559306058 -1.0037328788
O -0.0008014337 -0.0019982371 2.1689729588
H 0.7792591185 0.0579167632 2.7453181712
H -0.7830546856 -0.0527543937 2.7432118247
O -0.0000971080 0.0001685646 -2.1510435393
C -0.8064046493 0.7751500393 -2.9855651651
C -0.5197209931 0.4993864446 -4.2760320080
C 0.5195131354 -0.4983588286 -4.2762034486
C 0.8060666709 -0.7745283911 -2.9858201092
H -1.4946098591 1.4374468089 -2.4873623600
H -0.9872750990 0.9474014931 -5.1419704514
H 1.4941841687 -1.4370048521 -2.4878139505
H 0.9872044086 -0.9460223668 -5.1422542079
