41
# extracted from Terachem optimization
Cr 0.0298785842 0.0396824483 0.0132288259
C -0.0929339451 0.4576457997 2.6726632540
O -0.1438206258 0.6537178810 3.7833874265
C 0.1990280804 -0.3235713439 -2.6548051869
O 0.2763474576 -0.4681601490 -3.7719890629
O 0.0112561661 2.1122482174 -0.2980446323
C -0.9616391695 3.0221336261 0.1661382719
C -0.6981102618 4.2455303545 -0.3327196034
C 0.4836237586 4.1376725558 -1.1531769668
C 0.8895282635 2.8536713339 -1.1171925391
H -1.7216736633 2.6053654437 0.8065893512
H -1.2728231088 5.1422169717 -0.1447764763
H 1.7145163597 2.3018972674 -1.5369795688
H 0.9650385858 4.9379307911 -1.6987337703
O 2.1369968296 0.0548606619 0.0875933259
C 2.9244524445 0.9398214677 0.8525898451
C 4.2196629580 0.5819173167 0.7516071308
C 4.2860886691 -0.5762857931 -0.1061843183
C 3.0284179868 -0.8736196133 -0.4881893749
H 2.3904426800 1.7406372836 1.3384641123
H 5.0525228972 1.0814552845 1.2278675755
H 2.5784236009 -1.6384981568 -1.1006223309
H 5.1786408158 -1.1134988527 -0.3972005226
O 0.0181499714 -2.0398457118 0.2988237810
C 0.8237990001 -2.8056205494 1.1664010123
C 0.4989117468 -4.1070975272 1.0385947542
C -0.5532843185 -4.2003467521 0.0555658951
C -0.8244347238 -2.9513940713 -0.3709701095
H 1.5422795539 -2.2534620240 1.7503164461
H 0.9501522907 -4.9271310610 1.5807396632
H -1.5231682087 -2.5180582740 -1.0685493682
H -1.0432752547 -5.1036386289 -0.2818225763
O -2.0890728047 0.0190145745 -0.0246293594
C -2.9347547931 -0.6706792276 0.8673958978
C -4.2085153581 -0.5709233619 0.4389867868
C -4.1997698506 0.2046826575 -0.7774400694
C -2.9213844619 0.5451341903 -1.0345800854
H -2.4477366593 -1.1485788390 1.7023457885
H -5.0751069373 -0.9948972478 0.9276481580
H -2.4283207757 1.1336913783 -1.7914969272
H -5.0588257570 0.4741052679 -1.3769100758
