22
# extracted from Terachem optimization
Cr 0.0833597978 0.1263160585 -0.0475360878
O 0.4580975505 2.1728002708 -0.2342024715
H 1.3995310982 2.3318583572 -0.4360690797
H -0.0704401083 2.8413778699 -0.7043417216
O 2.5061874155 0.2113862735 -0.2677635947
H 3.0965051276 -0.0216184068 -1.0051627407
H 3.0598234687 0.1634597102 0.5302750895
O -0.2415940082 -1.8756652931 0.4529110401
H 0.1648068732 -2.6586996342 0.0416227563
H -1.1966990083 -2.0522683256 0.5521343973
O -2.2969286482 0.0686802764 0.4837901520
H -2.6596372093 0.3473090970 1.3428544792
H -3.0451736694 0.1324711314 -0.1356318898
O 0.4418543159 0.4284435087 1.9976562868
H 0.4589044615 1.2963556802 2.4357223217
H 0.4594565069 -0.2672310244 2.6767623608
C -0.2112129299 -0.1956958723 -2.1705062751
N -0.3383466879 -0.3824116798 -3.3085877990
C -0.4895865604 -0.6221365043 -4.7144268579
H -1.1833795439 -1.4540980841 -4.8572442223
H 0.4875974842 -0.8713046275 -5.1359444279
H -0.8831270638 0.2806707589 -5.1876296893
