33
# extracted from Terachem optimization
Cr 0.0084857601 -0.0244408363 0.0960160735
O 0.1531617347 2.1433389282 0.0561107197
H 0.7019995735 2.6628926697 -0.5553109292
H -0.2797410932 2.7772077394 0.6529993048
O 2.3999857720 -0.1130914891 0.0241550437
H 2.9819981058 0.2451980640 -0.6686173575
H 2.9693218593 -0.7052612860 0.5449982790
O -0.1918380284 -2.1829370791 0.0504513583
H 0.2635204044 -2.8465582515 0.5962284935
H -0.9702668603 -2.6204336538 -0.3340137551
O -2.4004277120 0.0169962833 -0.0290967102
H -2.9851181448 0.4964005221 0.5825848720
H -2.9549887736 -0.1715661317 -0.8066996006
O 0.0016551673 0.0014001720 -2.0470801095
C 0.7577336159 -0.8151569864 -2.8993728447
C 0.4874524456 -0.4941498440 -4.1820819327
C -0.4824994658 0.5727270194 -4.1637333397
C -0.7541688657 0.8479031951 -2.8706794755
H 1.3893952225 -1.5370185018 -2.4076752682
H 0.9217584159 -0.9569776536 -5.0577533266
H -1.3871007581 1.5523354789 -2.3559240677
H -0.9163921789 1.0656051293 -5.0229476617
C 0.0320468329 0.0213859692 4.9681648766
C 0.9589089923 0.7746077234 4.2445809889
C 0.9216280140 0.7357533565 2.8564612430
N 0.0157805942 -0.0071214028 2.1758045471
C -0.8794995569 -0.7377810346 2.8828981106
C -0.9018568343 -0.7488944231 4.2716249071
H 0.0369744309 0.0350305904 6.0538495174
H 1.7040504781 1.3838393210 4.7448076730
H 1.6276016707 1.3010073858 2.2579006937
H -1.5895409638 -1.3195952459 2.3049774961
H -1.6380986505 -1.3507516408 4.7938614075
