99
# extracted from Terachem optimization
Cr -0.0252521372 0.0118002158 -0.0504611423
C -0.2020056786 4.9372782606 0.6961394254
C 0.8288948459 4.1543900833 1.2429293457
C 0.8429999484 2.7884548971 1.0107561332
N -0.0925976366 2.1465556218 0.2770215556
C -1.0852703610 2.9017453408 -0.2465029231
C -1.1774683937 4.2706266272 -0.0678588225
S -0.3467541019 6.6765640667 0.9049843911
H 1.6176113926 4.5965642120 1.8427620723
H 1.6353955858 2.1714989967 1.4176774299
H -1.8336738585 2.3713738188 -0.8227043514
H -2.0029298163 4.8127001389 -0.5178830819
H 0.7552352487 6.8419632483 1.6645625752
C 5.3082878376 -0.0724883430 0.7196884754
C 4.4353992372 -0.7824838972 1.5605627495
C 3.0679065771 -0.7109079784 1.3300326789
N 2.5070334816 0.0055717902 0.3366175960
C 3.3527865550 0.6851574153 -0.4652115567
C 4.7316743823 0.6793435989 -0.3197247878
S 7.0620071698 -0.0654083180 0.8863563035
H 4.8078355293 -1.3840566267 2.3836592285
H 2.3830445118 -1.2580350695 1.9730950986
H 2.8950561566 1.2648262934 -1.2628040490
H 5.3490028046 1.2517733129 -1.0050218354
H 7.1270858881 -0.8860769808 1.9545029153
C 0.1002739985 -4.9024198185 -0.8374888327
C -1.0345149769 -4.2788259049 -0.2911645888
C -1.0291645556 -2.9071789514 -0.0952642777
N 0.0212054189 -2.1146968820 -0.4010130590
C 1.1112646549 -2.7158416899 -0.9304104672
C 1.1930967100 -4.0773438296 -1.1616983844
S 0.2372454684 -6.6287186511 -1.1388686614
H -1.9177006018 -4.8482349944 -0.0206818183
H -1.8981551920 -2.4048866898 0.3132049280
H 1.9438795552 -2.0665268375 -1.1737636834
H 2.0997460729 -4.4925696424 -1.5898856352
H -0.9912010358 -6.9694505076 -0.6988148561
C -5.4401649502 0.0808898797 -0.6195168142
C -4.5860326417 -0.2715746192 -1.6775135115
C -3.2155709313 -0.3018399972 -1.4558710616
N -2.6333175426 -0.0113085480 -0.2757208380
C -3.4618918447 0.3261238627 0.7338215318
C -4.8425188925 0.3849198411 0.6165054192
S -7.1955202918 0.1650637839 -0.7453909118
H -4.9747512064 -0.5194473196 -2.6601540301
H -2.5423749037 -0.5757899360 -2.2642938815
H -2.9922572913 0.5640441678 1.6848790285
H -5.4452067287 0.6654914071 1.4747273215
H -7.2822042026 -0.1833443877 -2.0453482222
C -0.3290572233 -0.3210591646 2.0989046348
N -0.4854761933 -0.4751151102 3.2463183042
C -0.6691968331 -0.6467088867 4.6121339705
C -0.2502730311 0.3578659886 5.4965968670
C -0.4405421090 0.1741602821 6.8582661257
C -1.0431848118 -0.9888213864 7.3797142962
C -1.2268952202 -1.1383161834 8.8977142366
C 0.1648755503 -1.1099418721 9.5762490912
C -2.0828126468 0.0402058631 9.4239965669
C -1.9310023052 -2.4555331627 9.2747886824
C -1.4493243691 -1.9725272929 6.4619964908
C -1.2695249795 -1.8159125600 5.0904271102
H 0.2133672736 1.2616138287 5.1142919204
H -0.1141461231 0.9579086993 7.5333033476
H 0.7926431780 -1.9376468570 9.2280980304
H 0.0509727520 -1.2054123443 10.6613211022
H 0.6973031841 -0.1733713523 9.3805472227
H -3.0736266781 0.0514039860 8.9565188688
H -1.6097455997 1.0103733319 9.2399928592
H -2.2211006159 -0.0572886979 10.5060320645
H -2.9317014028 -2.5258099026 8.8335551197
H -2.0507422608 -2.5053440009 10.3613276104
H -1.3524172472 -3.3354639848 8.9711739033
H -1.9166720508 -2.8837351477 6.8145544527
H -1.5891929187 -2.5873887299 4.3971305690
C 0.2545272883 0.3616587353 -2.1874075739
N 0.4075788318 0.5515804680 -3.3297564137
C 0.5881586160 0.7798741677 -4.6868686515
C 0.3357305441 2.0549602385 -5.2136290837
C 0.5170252367 2.2669482698 -6.5725718682
C 0.9492133893 1.2417153631 -7.4386562493
C 1.1306578376 1.5318595489 -8.9364215177
C -0.2310335136 1.9682829731 -9.5317248083
C 2.1602955795 2.6753954261 -9.1115693718
C 1.6343516521 0.3007287812 -9.7133264440
C 1.1932614938 -0.0213128672 -6.8728782128
C 1.0175651710 -0.2637367338 -5.5136328884
H 0.0046825937 2.8577727056 -4.5625861199
H 0.3175616582 3.2566733554 -6.9689734674
H -0.9801649334 1.1747839604 -9.4334060666
H -0.1151769268 2.1924812480 -10.5974518896
H -0.6224551588 2.8678401635 -9.0452812054
H 3.1371922344 2.3970358104 -8.7009851200
H 1.8382897342 3.6010826573 -8.6232253777
H 2.2916690628 2.8946872615 -10.1764236312
H 2.6101972266 -0.0415760852 -9.3506217251
H 1.7526785719 0.5608015928 -10.7696032813
H 0.9286967825 -0.5361500616 -9.6612467579
H 1.5261799536 -0.8410260797 -7.4975803919
H 1.2096197772 -1.2467703394 -5.0956268967
