59
# extracted from Terachem optimization
Cr -0.0049322033 -0.0104410716 -0.0736858867
O -0.1162074587 -0.0087834245 2.4629361276
H 0.6843238238 -0.0486332415 3.0114577390
H -0.8578880616 0.0108940157 3.0908874115
C -0.1048304064 5.0133107163 -0.0686733141
C -0.3788672308 4.2908264056 -1.2295181300
C -0.3460327143 2.9009744620 -1.1825239111
N -0.0579725914 2.2077974406 -0.0581726874
C 0.2047092555 2.9196591719 1.0631978022
C 0.1926253096 4.3093911696 1.0992123485
H -0.1234328438 6.0987261846 -0.0732560293
H -0.6141224668 4.7891891919 -2.1641126597
H -0.5471079862 2.3077529098 -2.0644770336
H 0.4207417216 2.3407417378 1.9525421966
H 0.4126183848 4.8252192613 2.0279388796
C 4.9615455018 0.1180170724 0.5272281720
C 4.2253559099 -0.9935856727 0.9370458777
C 2.8489851911 -0.9999309362 0.7390212419
N 2.1790617043 0.0287289892 0.1711998364
C 2.9042995928 1.1014265842 -0.2203477654
C 4.2834065721 1.1834572982 -0.0654020801
H 6.0377670034 0.1530289814 0.6657352078
H 4.7062725579 -1.8485825969 1.4003548025
H 2.2509033333 -1.8526534178 1.0344595220
H 2.3478186558 1.9133243860 -0.6714191361
H 4.8099177520 2.0689757056 -0.4055589314
C 0.0091526976 -5.0324123822 -0.1042527682
C -0.3160111078 -4.3296381590 1.0568054189
C -0.2965573851 -2.9393800064 1.0310407203
N 0.0259319108 -2.2264723318 -0.0736518134
C 0.3409010538 -2.9187531293 -1.1920156347
C 0.3417182114 -4.3085005763 -1.2490922082
H 0.0044572638 -6.1180810745 -0.1158460423
H -0.5858691278 -4.8472677616 1.9712735796
H -0.5360589374 -2.3600331838 1.9139965570
H 0.5909599038 -2.3259686414 -2.0616502271
H 0.6008924133 -4.8059723731 -2.1779940255
C -5.0018975231 -0.0505031794 0.2332548188
C -4.3198152641 -1.0875256544 -0.4038272340
C -2.9307895920 -1.0448400798 -0.4623310892
N -2.2008249381 -0.0374514063 0.0667463139
C -2.8728574724 0.9606167213 0.6826036901
C -4.2590325549 0.9911417797 0.7887339333
H -6.0859104301 -0.0530524677 0.2941393763
H -4.8510806650 -1.9209470836 -0.8509208489
H -2.3708915368 -1.8375891472 -0.9444096004
H -2.2706342133 1.7612061882 1.0940768516
H -4.7412213335 1.8221045939 1.2927826679
C 0.1811093812 -0.0249514437 -5.4537693249
C 1.3481977430 -0.0524249472 -4.6889699164
C 1.2372218925 -0.0365112142 -3.3012507920
N 0.0569388261 0.0032996111 -2.6487493061
C -1.0612091579 0.0336489589 -3.4029193255
C -1.0485678421 0.0212119460 -4.7954847824
H 0.2287763948 -0.0361593523 -6.5381638213
H 2.3278218313 -0.0854179262 -5.1550830349
H 2.1216991254 -0.0606606243 -2.6712582351
H -2.0008053177 0.0741813191 -2.8581628683
H -1.9831272063 0.0480869623 -5.3467832238
