51
# extracted from Terachem optimization
Cr 0.0952848683 0.1486340646 -0.3592855860
O 0.3770311205 0.2996743842 1.7110870514
H 1.2174828721 0.5580050094 2.1265563249
H -0.3623509458 0.6103913180 2.2647325064
O 0.0261627060 2.4525123473 -0.4965509617
C 0.5983374998 3.4325120124 0.3192266020
C 0.1069799379 4.6471245279 -0.0106626749
C -0.8290009035 4.4476130997 -1.0868610310
C -0.8479708642 3.1236028572 -1.3548860341
H 1.3299099674 3.0844668357 1.0303766694
H 0.3774239510 5.5894543731 0.4456993707
H -1.3662984651 2.5046273111 -2.0692676218
H -1.4041811473 5.2103774429 -1.5935462556
O 2.4285695497 0.1246688403 -0.3749052596
C 3.2132163557 -0.9982758490 -0.0857320139
C 4.5204011927 -0.6850923297 -0.2170264718
C 4.5900533390 0.6986476753 -0.6125402564
C 3.3209491799 1.1533258845 -0.7003375644
H 2.6616797895 -1.8885990966 0.1704410368
H 5.3546152215 -1.3540151249 -0.0561197792
H 2.8656212908 2.0995477731 -0.9471827367
H 5.4867392158 1.2720674056 -0.8034550662
O 0.1080410103 -2.1999721359 -0.0716981090
C 0.2025268665 -2.8565373450 1.1582786363
C 0.1384513929 -4.1929872220 0.9687929461
C -0.0031926991 -4.4134892457 -0.4468450333
C -0.0140468012 -3.1988896243 -1.0398408683
H 0.3019837467 -2.2214729883 2.0221531821
H 0.1860597285 -4.9481770108 1.7411553565
H -0.0835877205 -2.8667568694 -2.0623795231
H -0.0825241404 -5.3672701363 -0.9497094667
O -2.1482040223 0.1055259732 0.3563478664
C -2.7836668609 1.1255251536 1.0756018429
C -3.8370713735 0.6145927641 1.7531176311
C -3.8890314817 -0.7942992765 1.4605673595
C -2.8653479141 -1.0649406288 0.6218884773
H -2.3926170566 2.1187569213 0.9178216220
H -4.5207880374 1.1692095512 2.3817564503
H -2.4891332019 -1.9561505009 0.1453165821
H -4.6121425637 -1.5061584120 1.8338702709
C -0.6263039887 -0.5535700885 -5.1015401769
C 0.6646912566 -0.3850167322 -4.5963700061
C 0.8319536099 -0.1746921656 -3.2334841996
N -0.2173241951 -0.1310279077 -2.3787559819
C -1.4704756767 -0.2875977172 -2.8717908876
C -1.7114965797 -0.5012769641 -4.2224567472
H -0.7840098932 -0.7230809544 -6.1622405105
H 1.5329656538 -0.4156172679 -5.2455496889
H 1.8161579489 -0.0429702335 -2.7954109996
H -2.2803851546 -0.2394945992 -2.1500314017
H -2.7302166379 -0.6258437922 -4.5740424979
