19
# extracted from Terachem optimization
Cr 0.0139517599 -0.0026940987 -0.0004715844
O -0.0047004992 2.1247388371 0.0030369372
H 0.7623374039 2.7111257442 -0.1270015958
H -0.7847346625 2.6948801020 0.1279649829
O 2.3585484721 -0.0154337987 -0.2792943549
H 2.9494355392 -0.0319570801 -1.0515028872
H 2.9411277449 -0.0287135582 0.4989704023
O -0.0159767589 -2.1218441061 0.0059606665
H 0.7456744059 -2.7142401133 -0.1282144357
H -0.8007188001 -2.6839350801 0.1365316944
O -2.3489660633 -0.0141968423 0.2755697225
H -2.9429518671 -0.0249042881 1.0456247061
H -2.9293404371 -0.0257501105 -0.5043741950
O 0.4364794073 0.0164665640 2.0465743165
H 0.3637080215 0.8101453433 2.6061063382
H 0.3382878055 -0.7549005587 2.6331974400
O -0.4107926484 0.0123166230 -2.0466838691
H -0.3457243601 0.8070049525 -2.6053880605
H -0.3256443127 -0.7581088130 -2.6366064039
