27
# extracted from Terachem optimization
Cr 0.0000538650 0.0000278491 -0.0255923387
C 0.1277632862 2.2719041457 -0.1028746960
O 0.2070172792 3.3925606978 -0.1733190596
C 2.6872088763 0.0572879882 0.1745875698
O 3.7992525304 0.1546799908 0.3368726508
C -0.1277028582 -2.2717287024 -0.1030973439
O -0.2071124841 -3.3925125168 -0.1733609643
C -2.6870654303 -0.0575931012 0.1752507429
O -3.7992677852 -0.1543934135 0.3363712524
O 0.0001444315 -0.0000038265 2.0311203186
C -0.6355128348 0.9368539172 2.8819652655
C -0.4033657399 0.5983010506 4.1636319260
C 0.4030630478 -0.5986016671 4.1635887813
C 0.6353717835 -0.9370115141 2.8819569713
H -1.1786307095 1.7287566445 2.3908462821
H -0.7586842668 1.1359139203 5.0326966299
H 1.1782204173 -1.7290323584 2.3908615988
H 0.7585039244 -1.1360916209 5.0326174514
O 0.0000769418 -0.0001502042 -2.0792970382
C -1.0317846215 0.4702177800 -2.9320501174
C -0.6568116039 0.2992499327 -4.2125131754
C 0.6571304236 -0.2988790454 -4.2124873304
C 1.0319589317 -0.4701487413 -2.9320521764
H -1.9069818139 0.8642312168 -2.4406635827
H -1.2433220217 0.5641002758 -5.0822079109
H 1.9070841090 -0.8641670967 -2.4407073211
H 1.2435203734 -0.5638824956 -5.0821443913
