31
# extracted from Terachem optimization
Cr 0.0406476693 0.0780392289 0.0091756946
O -0.2783063131 2.0410898233 -0.2173078195
H 0.4523835387 2.6488118064 -0.4551992890
H -1.1308540374 2.4743845725 -0.4221225697
O 1.9741934432 0.5178629651 -0.3551655666
H 2.4634827158 0.3148658116 -1.1802984955
H 2.6235697230 0.7149189097 0.3514015080
O 0.3775591094 -1.8899888375 0.2446871933
H 0.0404610491 -2.5918973430 -0.3524637656
H 0.4756020286 -2.2795368429 1.1408597856
O -1.9492556659 -0.1122723394 0.2893498148
H -2.3231676479 -0.1060115311 1.1980451068
H -2.5183342743 -0.6930000516 -0.2595951080
O 0.4662703011 0.4424784398 1.9653071857
C -0.5124364252 1.1021214663 2.7814844774
C -0.4556631435 0.5992223829 4.0286211427
C 0.5779773610 -0.4162648832 4.0587603291
C 1.1126410795 -0.5061324516 2.8254548601
H -1.0103934310 1.9404859380 2.3198114769
H -1.0488493566 0.9348205273 4.8720956210
H 1.9789448045 -1.0052225434 2.4127953069
H 0.9024488775 -0.9732289494 4.9311240633
O -0.2815187610 -0.3362195499 -1.9271877447
C -1.1518353514 0.3688315943 -2.8259172497
C -0.7947646504 0.0916266051 -4.0903994875
C 0.3443449415 -0.8021988169 -4.0533979130
C 0.6492349868 -1.0467707520 -2.7673395423
H -1.9398422327 0.9460400156 -2.3693031275
H -1.2926934264 0.4597597156 -4.9805069751
H 1.3549268399 -1.6894401980 -2.2617686574
H 0.8534218789 -1.2273651493 -4.9110000990
