41
# extracted from Terachem optimization
Cr -0.0067492582 -0.0008456336 -0.0359725472
C 1.2426131014 2.9637675947 -0.5966573511
N 0.3307933783 2.1433431914 0.2518606207
H -0.6132314970 2.5235341429 0.1518729571
H 0.5535891494 2.3143689934 1.2336715312
H 1.0359796651 2.7605695445 -1.6492183818
H 2.2814596991 2.7076166447 -0.3768465284
H 1.1114689080 4.0331778547 -0.4081050746
C 2.8297168513 -1.4125651441 -0.7113797447
N 2.1525224473 -0.1074389377 -0.4611449570
H 2.3275328773 0.4903994839 -1.2686075683
H 2.6331866540 0.3442241561 0.3184235911
H 2.3633645532 -1.9004265633 -1.5702037300
H 2.7373739381 -2.0496635640 0.1726888910
H 3.8946949243 -1.2813104150 -0.9240750319
C -1.2532904455 -2.9660771289 0.5273100148
N -0.3440129812 -2.1451386303 -0.3234453591
H -0.5686492586 -2.3165597715 -1.3047851509
H 0.6005314315 -2.5245846882 -0.2255490027
H -2.2928869201 -2.7111111243 0.3096609991
H -1.0447539691 -2.7620971631 1.5793179878
H -1.1214323032 -4.0354381266 0.3389666030
C -2.8466310652 1.4113984572 0.6178909962
N -2.1663747372 0.1043711976 0.3869565243
H -2.6442449705 -0.3585242206 -0.3877074375
H -2.3417752889 -0.4833009949 1.2017326011
H -2.7477148518 2.0387676812 -0.2723665543
H -2.3876099647 1.9089821334 1.4751284755
H -3.9130946571 1.2814831917 0.8238935317
C 0.2621817537 -0.2374029511 1.9855220511
N 0.4313184307 -0.3705265294 3.1349670435
C 0.6407073701 -0.5393735630 4.5419576518
H 1.1112841931 -1.5094020399 4.7217312479
H -0.3211237933 -0.4959605641 5.0591603086
H 1.2921999656 0.2575934473 4.9091497540
C -0.2755683186 0.2359005960 -2.0577997467
N -0.4446725911 0.3692894752 -3.2072056632
C -0.6541445987 0.5388956817 -4.6141036547
H -1.3108090463 -0.2541903512 -4.9804857424
H 0.3069884871 0.4894027980 -5.1320533366
H -1.1189227692 1.5117251581 -4.7938194687
