67
# extracted from Terachem optimization
Cr -0.0150155504 0.0009632634 0.0005766207
C 4.3680855584 -0.5103122033 0.1127412562
C 4.7900138782 0.8074035326 0.0969626977
C 3.8339994247 1.8499101996 0.0463546080
C 4.1809442636 3.2427332240 0.0194489953
C 3.2151857309 4.2056372824 -0.0348242391
C 1.8234575426 3.8541478507 -0.0589283212
C 0.7778751189 4.8068018548 -0.1098314687
C -0.5386162703 4.3808791725 -0.1230540365
C -0.8160384891 3.0057491924 -0.0827292663
N 0.1477388809 2.0790500051 -0.0333686530
C 1.4555519558 2.4871209299 -0.0271097189
C 2.4681085324 1.4776221700 0.0177055184
N 2.0639521424 0.1686392818 0.0269053275
C 2.9937339919 -0.7921669642 0.0756528467
H 5.0790841644 -1.3285691561 0.1508210936
H 5.8491507728 1.0487317289 0.1221945868
H 5.2312506809 3.5168581893 0.0409391090
H 3.4860938778 5.2567355872 -0.0585344394
H 1.0159323921 5.8666232721 -0.1373547003
H -1.3590831708 5.0893059805 -0.1614735256
H -1.8359436357 2.6385473470 -0.0847900910
H 2.6302864494 -1.8134040255 0.0799502777
C 0.1154806493 0.5208053513 4.3811106042
C 0.1024236744 -0.7960525960 4.8058672352
C 0.0499883861 -1.8407232714 3.8523012087
C 0.0258004552 -3.2327843656 4.2024682539
C -0.0301360352 -4.1977088720 3.2388218156
C -0.0587910826 -3.8494131074 1.8463736173
C -0.1113455005 -4.8043868662 0.8030065986
C -0.1288880030 -4.3812611099 -0.5143139168
C -0.0916389519 -3.0066579547 -0.7948750405
N -0.0409932482 -2.0778338882 0.1667632512
C -0.0300465812 -2.4831727695 1.4753578730
C 0.0165442801 -1.4715192842 2.4856748536
N 0.0226606371 -0.1633269203 2.0787427340
C 0.0734431351 0.7995707315 3.0063006158
H 0.1550185384 1.3406182580 5.0902335212
H 0.1311922547 -1.0350853256 5.8654352675
H 0.0507876086 -3.5046444082 5.2532886727
H -0.0516787698 -5.2482520788 3.5120359552
H -0.1367002445 -5.8637365055 1.0433818622
H -0.1685107719 -5.0914878448 -1.3331665484
H -0.0973205941 -2.6420272800 -1.8156916069
H 0.0752433578 1.8198832256 2.6402558830
C 0.4964312061 0.1224588361 -4.3822468570
C -0.8212121755 0.1045762499 -4.8043100834
C -1.8637171621 0.0500003283 -3.8485105494
C -3.2563966864 0.0208088329 -4.1958240601
C -4.2191350527 -0.0371398135 -3.2301099637
C -3.8679358979 -0.0629875701 -1.8383381146
C -4.8205432334 -0.1175608096 -0.7928993869
C -4.3946746239 -0.1321844195 0.5235945311
C -3.0196763306 -0.0896474698 0.8013082002
N -2.0930273826 -0.0368513465 -0.1623588383
C -2.5010357273 -0.0290961843 -1.4702032431
C -1.4915814713 0.0196587209 -2.4826108386
N -0.1826603582 0.0309578147 -2.0782964926
C 0.7781217514 0.0834857179 -3.0079170789
H 1.3146933034 0.1636008113 -5.0930702431
H -1.0624896178 0.1311743628 -5.8634242675
H -3.5304685426 0.0435876375 -5.2461203237
H -5.2701513583 -0.0625196092 -3.5011671548
H -5.8802937570 -0.1467308131 -1.0310749329
H -5.1031074576 -0.1733621903 1.3439212299
H -2.6525902533 -0.0926897538 1.8212519677
H 1.7992943286 0.0892917600 -2.6443215663
