57
# extracted from Terachem optimization
Cr 0.0435507375 0.0022905241 0.1000426000
O 0.0656472276 2.0404705878 0.0292791903
C -1.0593302755 2.9165278811 0.1027720818
C -0.6271147223 4.1865770490 0.0130168604
C 0.8118107990 4.1624755877 -0.1238882170
C 1.2121343244 2.8787560560 -0.1133323981
H -2.0130248244 2.4323008403 0.2213980704
H -1.2558509297 5.0680807869 0.0382511595
H 2.1546226713 2.3673825675 -0.1956125817
H 1.4617337584 5.0229097427 -0.2229925644
O 2.1005681982 -0.0154267918 0.1051419169
C 2.9756784326 -0.1044590663 1.2307743462
C 4.2481841613 -0.1093623941 0.7971684865
C 4.2306852339 -0.0219650153 -0.6456107734
C 2.9487788169 0.0303397051 -1.0468053124
H 2.4918384093 -0.1584287230 2.1893306220
H 5.1266732883 -0.1674230198 1.4279462158
H 2.4379064740 0.1018111904 -1.9905097811
H 5.0944221912 -0.0033460321 -1.2985440278
O 0.0303081053 -2.0478029310 0.0666765792
C 1.1459452226 -2.9110156294 0.2839830983
C 0.7188223022 -4.1858269120 0.2676647901
C -0.7084487903 -4.1783300581 0.0397355807
C -1.1068059508 -2.8987218402 -0.0768844215
H 2.0920056884 -2.4171832033 0.4216115158
H 1.3445311021 -5.0595724314 0.3970544126
H -2.0398444890 -2.3990079458 -0.2707731430
H -1.3521472853 -5.0461188420 -0.0347911797
O -2.0441514299 0.0118154518 -0.0050314085
C -3.0000214014 0.2279503570 1.0333801063
C -4.2369159098 0.2062053370 0.5064011965
C -4.1135979541 -0.0315813021 -0.9128213033
C -2.8057574562 -0.1412682955 -1.2052134696
H -2.5929364624 0.3690819910 2.0183626756
H -5.1588320875 0.3415017411 1.0579190021
H -2.2410035237 -0.3167627821 -2.1028763290
H -4.9258965748 -0.1084290894 -1.6249044609
O 0.0679688527 -0.0192430589 -2.0233517233
C -0.1634347648 1.0771964702 -2.9002492008
C -0.1120944563 0.6407596340 -4.1721590404
C 0.1644351918 -0.7777859249 -4.1448800273
C 0.2679099791 -1.1553893616 -2.8569808301
H -0.3484643239 2.0230557729 -2.4202650237
H -0.2528143375 1.2520858841 -5.0545199094
H 0.4802132014 -2.0760991984 -2.3410133149
H 0.2732993669 -1.4285186204 -5.0032341100
C -0.2493207002 0.0539643643 4.9319306298
C -0.5267802968 -1.1124096148 4.2140401394
C -0.4267839092 -1.1011952997 2.8300425255
N -0.0606469459 0.0165559483 2.1397844875
C 0.2171260281 1.1524933697 2.8434016794
C 0.1287206222 1.2006944068 4.2270417996
H -0.3234813377 0.0696551935 6.0157400126
H -0.8187850235 -2.0288976721 4.7166984082
H -0.6554472583 -1.9878112536 2.2568199998
H 0.5269518851 2.0227021915 2.2821537020
H 0.3561639041 2.1303898181 4.7391040521
