59
# extracted from Terachem optimization
Cr -0.0115949602 -0.0224458210 -0.1456633788
C 0.0344476420 4.9770045705 0.4932188698
C 1.2237529722 4.2599152299 0.3679072201
C 1.1655364412 2.8845563562 0.1715277527
N 0.0055941975 2.1887149146 0.0967966699
C -1.1396094146 2.9016414816 0.2176441998
C -1.1694768809 4.2779528712 0.4133875134
H 0.0461435063 6.0518657218 0.6461374492
H 2.1883040149 4.7539131418 0.4179766731
H 2.0686791932 2.3017952627 0.0606242901
H -2.0545616507 2.3311634294 0.1462725693
H -2.1238612959 4.7862715347 0.4988037201
C 5.0385825829 -0.0503022478 -0.0723937011
C 4.3428157600 -0.0730395454 -1.2810881453
C 2.9516908205 -0.0669734195 -1.2595555210
N 2.2265696121 -0.0391367052 -0.1177923962
C 2.9160879740 -0.0226929160 1.0475066054
C 4.3045944237 -0.0261904273 1.1144341493
H 6.1242008730 -0.0510350268 -0.0552859493
H 4.8644516808 -0.0947784581 -2.2321648203
H 2.3763211049 -0.0850130398 -2.1756068130
H 2.3117109171 -0.0037184871 1.9448058233
H 4.7961008736 -0.0086862808 2.0815237564
C -0.0389287103 -5.0521939254 0.1805902984
C 1.1618148447 -4.3464927461 0.1077435233
C 1.1251424694 -2.9583070962 0.0393471951
N -0.0235239077 -2.2407493590 0.0370558160
C -1.1798866232 -2.9419297003 0.1129794164
C -1.2318146068 -4.3294680436 0.1862336895
H -0.0442788681 -6.1367713895 0.2296530214
H 2.1183540794 -4.8585702895 0.0991076549
H 2.0362460852 -2.3808233402 -0.0267928591
H -2.0862529774 -2.3535731245 0.1016791070
H -2.1941181061 -4.8277135958 0.2409829938
C -5.0593708407 0.0976475607 -0.0732771417
C -4.3290168940 -0.0011299380 1.1120346850
C -2.9413165486 -0.0482157949 1.0462505147
N -2.2487759399 -0.0019976815 -0.1168043058
C -2.9706373138 0.0902738948 -1.2567646811
C -4.3608789341 0.1423316624 -1.2795624176
H -6.1442917125 0.1380378235 -0.0563627093
H -4.8234231977 -0.0422402348 2.0768325259
H -2.3396584372 -0.1241920094 1.9425095536
H -2.3940164473 0.1234753191 -2.1712361835
H -4.8795932318 0.2158854272 -2.2298063094
O -0.0118058653 -0.0548735135 2.1612710103
H -0.0357918482 0.7237375833 2.7432034034
H 0.0211529952 -0.8351072207 2.7409855002
C -0.0694154455 0.0350892819 -5.2256143328
C -0.1239630018 -1.1712345000 -4.5258579032
C -0.0946243536 -1.1431224283 -3.1356537719
N -0.0146097687 0.0024781064 -2.4218209307
C 0.0389505783 1.1647646307 -3.1113724154
C 0.0141582512 1.2248428765 -4.5007428740
H -0.0906650980 0.0476774052 -6.3112171056
H -0.1878221871 -2.1215833243 -5.0448620560
H -0.1357485155 -2.0561199384 -2.5535097311
H 0.1005593681 2.0662636737 -2.5132513466
H 0.0599845791 2.1872392036 -4.9993830092
