37
# extracted from Terachem optimization
Cr -0.1037163366 0.0612997600 -0.0064981012
N 0.2452813861 2.5709245681 -0.0014348186
N 2.0942523187 0.3122850980 -0.2729891915
C 2.4527103757 1.7030237104 -0.7005348018
C 1.7166298483 2.7345591167 0.1451526909
H 2.0570910684 3.7383188335 -0.1346362020
H 1.9676083251 2.5970251155 1.2033725894
H 2.1748612987 1.8089281523 -1.7549979542
H 3.5337245343 1.8666440949 -0.6344527057
H -0.0514974980 3.0275688004 -0.8664661422
H -0.2221395969 3.1012152632 0.7353371736
H 2.5973171570 0.1053514687 0.5931386936
H 2.4793413832 -0.3496117680 -0.9493502474
N 0.3376062188 -2.4434510223 0.4478022405
N -0.0426137922 -0.0862549488 2.1947964717
C -0.2557704954 -1.4969565243 2.6608468462
C 0.6437198354 -2.4651124365 1.9019038445
H 0.5345339416 -3.4646626941 2.3399824442
H 1.6939215639 -2.1789608035 2.0348266101
H -1.3101446404 -1.7431131564 2.4933970948
H -0.0704355639 -1.5807379114 3.7369026963
H -0.4853115778 -3.0257390887 0.2802732596
H 1.0895390649 -2.9154014991 -0.0557688267
H 0.8480258800 0.2427829231 2.5767476693
H -0.7386855387 0.5130854313 2.6441249743
N -2.2887203689 -0.0062165583 -0.1309143608
N -0.3474617716 -0.2460337071 -2.1842517739
C -1.7732404775 -0.6203134562 -2.4529672896
C -2.6841965960 0.2084828468 -1.5615777143
H -3.7335500968 -0.0526826267 -1.7321315982
H -2.5685706866 1.2755461369 -1.7780317255
H -1.8874235438 -1.6861014221 -2.2289759323
H -2.0349566560 -0.4781999359 -3.5065692642
H -2.6654172222 -0.9059988250 0.1787433625
H -2.7626466541 0.6877291000 0.4514516968
H -0.1265009344 0.5991395746 -2.7158546345
H 0.2636516685 -0.9691624817 -2.5677180856
