37
# extracted from Terachem optimization
Cr -0.0000033691 0.0000293067 -0.0000292089
C -0.0007121499 2.3536373761 -0.0004573021
N -0.0008845831 3.5176980914 -0.0006673274
C 0.0002006077 4.9474771427 0.0001788427
H 0.8355579233 5.3066335170 -0.6058271520
H 0.1077395951 5.3061910929 1.0267079152
H -0.9416723386 5.3083135533 -0.4202494107
C 2.1395202816 0.0006034374 -0.0001527026
N 3.2999566231 0.0008113194 -0.0005250027
C 4.7291686602 -0.0000458085 0.0001386430
H 5.0849757544 -0.8363682918 -0.6062818042
H 5.0843862413 -0.1078618143 1.0277151207
H 5.0864208194 0.9430136592 -0.4203520399
C 0.0007099387 -2.3536030234 -0.0004581873
N 0.0008672154 -3.5176496312 -0.0006612249
C -0.0002018858 -4.9474437106 0.0001993175
H -0.8355809554 -5.3066150890 -0.6057679223
H -0.1077904387 -5.3061386723 1.0267313606
H 0.9416836572 -5.3082545967 -0.4202276059
C -2.1394769011 -0.0002817937 0.0004632893
N -3.3000195368 -0.0005220934 0.0008056074
C -4.7291694283 -0.0000474761 -0.0001096183
H -5.0848235981 -0.6064325437 -0.8365198598
H -5.0845698820 1.0274780721 -0.1078380754
H -5.0864258210 -0.4207158405 0.9428695845
C -0.0000359101 0.0004443185 2.3533898335
N 0.0006963812 0.0008622440 3.5174240145
C 0.0002410013 0.0000075714 4.9472214055
H 0.6056577319 -0.8357544699 5.3064356968
H -1.0263353511 -0.1076301027 5.3057786628
H 0.4201838706 0.9420991814 5.3080439179
C 0.0000290644 0.0004346945 -2.3533663031
N -0.0006911050 0.0008423708 -3.5174051044
C -0.0002121664 0.0000317431 -4.9471813543
H -0.6056019530 -0.8357446857 -5.3064085145
H 1.0263797707 -0.1076487979 -5.3056880663
H -0.4201677659 0.9421487538 -5.3079324155
