54
# extracted from Terachem optimization
Cr 0.0283553249 -0.0084297101 0.0808433166
C 0.0606345794 -0.0013241358 -2.0954913196
N 0.0650319200 0.0263005398 -3.2551557507
C 0.0711162762 0.0708759219 -4.6860585565
H -0.5238307324 -0.7616235328 -5.0688100043
H 1.1021600266 -0.0147393132 -5.0369078030
H -0.3579087337 1.0216051971 -5.0111320430
O 0.0102532007 2.1527470592 -0.0096485823
C -1.1187193936 2.9709788514 -0.1661436918
C -0.7320943070 4.2618716598 -0.2246777583
C 0.7046899314 4.2871023911 -0.1099271192
C 1.1224791802 3.0095171353 0.0098821398
H -2.0629765651 2.4547401215 -0.1987531693
H -1.3883271950 5.1139239898 -0.3377910551
H 2.0772727881 2.5192358305 0.1077799058
H 1.3396530979 5.1624403502 -0.1174300689
O 2.5518363028 -0.0277816170 0.1054154713
C 3.4075083850 0.3153441652 1.1512098432
C 4.6956647702 0.1811794993 0.7597528863
C 4.6734893012 -0.2770175921 -0.6047223422
C 3.3733915214 -0.3885993181 -0.9592878209
H 2.9258355504 0.6046139609 2.0720372122
H 5.5711172450 0.3799012566 1.3628825942
H 2.8662079707 -0.6954112419 -1.8598324051
H 5.5276712820 -0.4952899922 -1.2312252808
O 0.0615148189 -2.1692918314 0.0333076203
C 1.1793875695 -2.9884486597 0.2512105001
C 0.8237599418 -4.2801176145 0.0944368896
C -0.5777392981 -4.3033692159 -0.2431659637
C -1.0067327192 -3.0241985474 -0.2748499079
H 2.0901458935 -2.4700634154 0.4976526051
H 1.4788895191 -5.1334098987 0.2033090144
H -1.9496318055 -2.5365262654 -0.4621738918
H -1.1817774413 -5.1788275760 -0.4372114013
O -2.5238452839 0.0071502553 0.0374218969
C -3.3545265812 -0.2587851939 -1.0487916084
C -4.6518084517 -0.1254171598 -0.6880377214
C -4.6609111916 0.2482279524 0.7014823370
C -3.3696688019 0.3150668654 1.0996904644
H -2.8531831423 -0.5065995504 -1.9710898638
H -5.5117882572 -0.2729913462 -1.3270519775
H -2.8850418615 0.5448380699 2.0350095117
H -5.5296318206 0.4392720608 1.3167011131
C -0.1773471708 -0.0246109527 5.0085814736
C 0.1073745579 1.1511537949 4.3115598800
C 0.1388225504 1.1232600245 2.9233027547
N -0.0882318437 -0.0052907205 2.2051693385
C -0.3684331570 -1.1399163312 2.8919844004
C -0.4238780924 -1.1879767861 4.2795088444
H -0.2067337847 -0.0332108992 6.0940106158
H 0.3038073771 2.0836254014 4.8298170470
H 0.3549084370 2.0222438547 2.3600405237
H -0.5551853982 -2.0281391933 2.3041609163
H -0.6534003959 -2.1276996511 4.7708859751
