41
# extracted from Terachem optimization
Cr -0.0068423005 0.0000203023 -0.0358687831
C 1.2149632035 2.9818559132 0.2982566059
N -0.0247823792 2.1289899937 0.2814206384
H -0.6470779708 2.5101192064 -0.4357843250
H -0.5253521320 2.2988665913 1.1585966546
H 1.7692246352 2.8413401836 -0.6312617400
H 1.8342035427 2.7188325124 1.1572066311
H 0.9416958164 4.0369891021 0.3860061919
C 2.9360009481 -1.2765704971 0.4071344973
N 2.1207617975 -0.0177885665 0.2914253833
H 2.5368915253 0.5522082867 -0.4501674192
H 2.2837594272 0.5255213059 1.1428914442
H 2.8600153176 -1.8532547481 -0.5158191863
H 2.5862608451 -1.8649566097 1.2582569867
H 3.9879120036 -1.0275163741 0.5724910498
C -1.2287566076 -2.9819228599 -0.3792797140
N 0.0109710998 -2.1291673221 -0.3542339189
H 0.5161368819 -2.2976940767 -1.2290193479
H 0.6292038741 -2.5115045421 0.3658040344
H -1.8452971483 -2.7148029720 -1.2388872081
H -1.7858539291 -2.8460621796 0.5492506191
H -0.9550862100 -4.0366180522 -0.4709614594
C -2.9550020523 1.2732390398 -0.4552509245
N -2.1349519122 0.0157959402 -0.3609324806
H -2.2969659368 -0.5145083220 -1.2208054844
H -2.5477052861 -0.5678000257 0.3718954991
H -2.6160073540 1.8706267422 -1.3044177282
H -2.8702201374 1.8408071056 0.4725217315
H -4.0079411058 1.0228471323 -0.6117147387
C -0.3176372106 -0.3332467849 2.0654428179
N -0.4814151783 -0.5099820044 3.1993029097
C -0.6841308281 -0.7274587619 4.6089702994
H -0.1323546265 -1.6235240259 4.9066057222
H -1.7540945709 -0.8614817483 4.7913130478
H -0.3126861153 0.1454842961 5.1531133544
C 0.3042931337 0.3345269155 -2.1370493783
N 0.4694766520 0.5116398666 -3.2706452529
C 0.6751303559 0.7289210050 -4.6797975599
H 0.1152179028 -0.0291141542 -5.2347797309
H 1.7442874709 0.6433772894 -4.8936792418
H 0.3156031662 1.7296715691 -4.9353954909
