13
# extracted from Terachem optimization
Cr -0.0000007511 -0.0000006319 -0.0000005584
C -0.0000058559 2.1768986864 -0.0000001700
O -0.0000005367 3.2976352501 -0.0000006483
C 2.1768999607 0.0000025954 -0.0000072248
O 3.2976349033 0.0000007612 -0.0000001395
C 0.0000055233 -2.1768985809 -0.0000003813
O 0.0000005146 -3.2976345017 0.0000008585
C -2.1768977599 -0.0000028398 0.0000067093
O -3.2976355424 -0.0000006705 0.0000003360
C 0.0000044340 -0.0000062468 2.1768981354
O 0.0000000998 0.0000003182 3.2976357594
C -0.0000050207 0.0000060287 -2.1768976823
O 0.0000000318 -0.0000001613 -3.2976349902
