54
# extracted from Terachem optimization
Cr 0.0292560640 0.0134308372 0.0754771792
O 0.0127523853 2.2273199232 0.0086149911
C -1.0999789154 3.0775804389 0.0327643869
C -0.7059281425 4.3434100893 -0.2242470058
C 0.7201219335 4.3142687569 -0.4295328750
C 1.1187012574 3.0326742709 -0.2860581632
H -2.0399038710 2.5962751088 0.2472269025
H -1.3476327999 5.2129173678 -0.2628948428
H 2.0621016166 2.5150820782 -0.3320499332
H 1.3597929644 5.1574688386 -0.6508435126
O 2.2523926029 0.0228240915 0.2058533337
C 2.9962149436 0.3173030506 1.3560091472
C 4.3098385449 0.1275119663 1.1089126710
C 4.4274366605 -0.3156764023 -0.2572288524
C 3.1792390731 -0.3670734047 -0.7686190102
H 2.4221815869 0.6426693263 2.2061114199
H 5.1176640548 0.2836510657 1.8105035950
H 2.7644322986 -0.6411098417 -1.7235557304
H 5.3399691782 -0.5612064381 -0.7828872865
O 0.0671795877 -2.2061853723 0.0339468580
C 1.1804166083 -3.0344419139 0.2253023851
C 0.8595771745 -4.3033409590 -0.1070458834
C -0.5155289223 -4.2981960751 -0.5383089439
C -0.9592595340 -3.0264979211 -0.4449389465
H 2.0659803654 -2.5401429438 0.5890105188
H 1.5179976091 -5.1595644481 -0.0544441847
H -1.8959587779 -2.5280967262 -0.6333623934
H -1.0923324842 -5.1504480906 -0.8702873445
O -2.2077378680 -0.0004792007 0.0014547236
C -3.0960695115 -0.4599752032 0.9824021066
C -4.3589625841 -0.4231958892 0.5069848914
C -4.2937554500 0.0833186315 -0.8402168513
C -2.9933076596 0.3226656311 -1.1124068957
H -2.6478659793 -0.7527943781 1.9162601649
H -5.2491509916 -0.7170922828 1.0459714234
H -2.4572914926 0.7123966393 -1.9609937912
H -5.1251485651 0.2479541357 -1.5116761098
C -0.3792830874 0.0365009303 5.0233713941
C -0.1787366842 -1.1552634520 4.3261435289
C -0.0597395221 -1.1175481536 2.9421503594
N -0.1341283758 0.0305702038 2.2235912861
C -0.3236221135 1.1824093358 2.9135901689
C -0.4493408371 1.2255257674 4.2973944878
H -0.4757582730 0.0381953308 6.1047384924
H -0.1116874125 -2.1075599922 4.8412224481
H 0.1030332607 -2.0268216462 2.3791757281
H -0.3705069552 2.0938337325 2.3329463446
H -0.5998322672 2.1807459785 4.7890886510
C 0.1627043811 -0.0031251107 -2.0425887320
N 0.2312810423 -0.0142212844 -3.2031438259
C 0.3110211493 -0.0283214419 -4.6328371030
H -0.4034261433 -0.7579724406 -5.0218765621
H 1.3247430799 -0.3051692676 -4.9324283144
H 0.0717993224 0.9685139837 -5.0113119048
