49
# extracted from Terachem optimization
Cr -0.0022368139 -0.0683293491 -0.0170559378
O -0.0008762683 2.1347908444 -0.0144894635
C -0.8276955065 2.9711319299 0.7424870499
C -0.5075165787 4.2600350146 0.4991889308
C 0.5731329624 4.2592682080 -0.4543570547
C 0.8519026158 2.9700891208 -0.7430399027
H -1.5682424345 2.4722635438 1.3461710133
H -0.9806945462 5.1266330744 0.9398297978
H 1.5741162449 2.4702591128 -1.3678799169
H 1.0729599425 5.1254764020 -0.8652231156
O 2.1760603152 -0.0674105477 0.0394567923
C 2.9884327097 0.6752863634 0.9010128492
C 4.2840048429 0.3697582510 0.6743208975
C 4.3124384476 -0.6155229480 -0.3768837085
C 3.0330134551 -0.8538468721 -0.7364079833
H 2.4727817476 1.3575078567 1.5566385289
H 5.1361674539 0.7924520581 1.1883312935
H 2.5524368908 -1.5084850057 -1.4444937869
H 5.1897638502 -1.0829125273 -0.8022653620
O -0.0026405001 -2.2675593588 -0.0197470526
C 0.8054611785 -3.1096362272 0.7516099318
C 0.5138407483 -4.3968882314 0.4667506741
C -0.5281456910 -4.3892465849 -0.5292322043
C -0.8135454745 -3.0977964474 -0.8003938656
H 1.5137849682 -2.6153436642 1.3965690424
H 0.9812284104 -5.2672658353 0.9065275910
H -1.5156735212 -2.5928291437 -1.4436738610
H -0.9992335835 -5.2523696579 -0.9790555077
O -2.1802546856 -0.0685782121 -0.0731819170
C -3.0394733442 -0.8503657579 0.7053972092
C -4.3195624591 -0.5850702768 0.3676439546
C -4.2889604850 0.4130865883 -0.6710878605
C -2.9917807832 0.6984789901 -0.9138114294
H -2.5592844438 -1.5241700487 1.3957025481
H -5.1990447934 -1.0425177373 0.7993206120
H -2.4738743883 1.3782834435 -1.5702151299
H -5.1413992637 0.8570772721 -1.1658739484
C -0.0731729396 -0.0596536903 2.1030152737
N -0.1134029260 -0.0387653276 3.2641402808
C -0.1602185386 -0.0052183483 4.6946996104
H 0.5685281857 -0.7157534063 5.0919742237
H -1.1653335268 -0.2766604018 5.0260571125
H 0.0832997987 1.0049938450 5.0330297089
C 0.0644039992 -0.0471127563 -2.1357853160
N 0.0993651278 -0.0173476370 -3.2968900450
C 0.1414128070 0.0289569201 -4.7275106005
H -0.5978163583 -0.6686154460 -5.1288220095
H 1.1420539595 -0.2517271378 -5.0650952506
H -0.0901027448 1.0456245034 -5.0551779230
