21
# extracted from Terachem optimization
Cr 0.1473070474 0.0016616449 -0.1331328875
C 0.1383268261 0.0026456116 2.2494830999
O 0.1232841830 0.0047976295 3.3770085962
O -0.0876034041 2.0436445308 0.0756986639
H 0.5446449476 2.7591623113 -0.1152993672
H -0.9868553734 2.4173881089 0.0659520606
O 2.4784800984 0.0037981539 0.1306732965
H 3.1214803669 0.0033055186 -0.5991506732
H 3.0145995220 0.0012255701 0.9428980223
O -0.0838919429 -2.0393852416 0.0766757871
H 0.5508688496 -2.7548154464 -0.1060368940
H -0.9821305184 -2.4153236288 0.0684857136
O -2.2948975348 0.0001527228 0.1516890976
H -2.8521691046 0.0051320702 0.9503074664
H -2.9207922514 -0.0016017851 -0.5930929467
C 0.0967060637 -0.0013952883 -2.2929740760
N 0.0541523931 -0.0031155365 -3.4519130300
C -0.0045938767 -0.0060828537 -4.8844266714
H -0.6345627777 -0.8384363945 -5.2082812264
H 1.0075635965 -0.1254487571 -5.2790557748
H -0.4299181150 0.9426910482 -5.2211532512
