61
# extracted from Terachem optimization
Cr 0.0008038254 0.0345989779 0.0127694807
C 1.2012345748 3.0876046882 -0.0904094437
N 0.0387234791 2.2392414953 0.3014512787
H -0.7783687879 2.5898698826 -0.1999787034
H -0.1596211549 2.4149153143 1.2889782379
H 1.4447021754 2.9088874521 -1.1403045400
H 2.0646122846 2.8393056566 0.5312696954
H 0.9859919552 4.1521444337 0.0405691982
C 3.0339793715 -1.1981555170 -0.2775999039
N 2.2015549207 0.0387170868 -0.2871192533
H 2.3683681452 0.5283465075 -1.1686401047
H 2.5704183929 0.6640217893 0.4310539620
H 2.7388194242 -1.8432025012 -1.1078537142
H 2.8823343248 -1.7241446234 0.6675746110
H 4.0985150748 -0.9703987331 -0.3833880145
C -1.2795225240 -2.9625712053 -0.4021045368
N -0.0243447400 -2.1638475899 -0.3138565283
H 0.5026139781 -2.3193071594 -1.1746549825
H 0.5568240533 -2.5644795257 0.4248149146
H -1.8795247687 -2.6007155057 -1.2410394163
H -1.8443593637 -2.8549052391 0.5263009379
H -1.0742339055 -4.0254269343 -0.5597094221
C -3.0249870729 1.2573950562 0.3413031467
N -2.1913186149 0.0220005599 0.3556356840
H -2.5815741277 -0.6245745367 -0.3316387318
H -2.3255534937 -0.4419363087 1.2564885648
H -2.9118467537 1.7528398386 -0.6260757032
H -2.6968785773 1.9268204750 1.1393734362
H -4.0847036048 1.0338597706 0.4943533746
C 0.4024698790 -0.3400901279 2.5116917445
N 0.7168681597 -0.4642612108 3.6279693206
C 2.6676768152 -0.5685792599 5.1203431440
C 3.4061868261 -1.7572783172 5.0833658712
C 4.7959290061 -1.7202194569 5.2028273894
C 5.4513383399 -0.4966372471 5.3582083532
C 4.7168565825 0.6911783842 5.3977942720
C 3.3273089948 0.6562496805 5.2794057523
H 2.8963394663 -2.7132983121 4.9864456784
H 5.3637652435 -2.6456578272 5.1921025625
H 5.2235120902 1.6410675639 5.5395237262
H 2.7560152326 1.5804066139 5.3357353327
H 6.5315621745 -0.4699710669 5.4653195003
C 1.1579915575 -0.6086014447 5.0043366511
H 0.6835684463 0.2010949101 5.5673879750
H 0.7466535763 -1.5562302364 5.3650778295
C -0.4078062307 0.4047187345 -2.4767580364
N -0.7258275175 0.5479854338 -3.5896372378
C -2.6729692583 0.5477307463 -5.0904986919
C -3.2174339927 -0.7110906686 -5.3714175062
C -4.5982818825 -0.8612239531 -5.5034631757
C -5.4388140797 0.2445330253 -5.3551555477
C -4.8982499907 1.5024609561 -5.0774194240
C -3.5178497645 1.6547191142 -4.9450418404
H -2.5634839139 -1.5689930210 -5.5121531076
H -5.0156683121 -1.8354224168 -5.7395978112
H -5.5489791123 2.3665605984 -4.9826940736
H -3.0977937210 2.6397766386 -4.7533544366
H -6.5121653492 0.1295766151 -5.4725449664
C -1.1731827928 0.7154136694 -4.9612500676
H -0.8463950277 1.7116946671 -5.2746837152
H -0.6272806487 -0.0217373912 -5.5579239815
