46
# extracted from Terachem optimization
Cr -0.0180580355 0.0371765694 -0.2314981843
O 0.0337469526 2.1838304886 -0.5115368184
C -0.9198831410 3.0977107443 -0.0409173186
C -0.4069803258 4.3457228755 -0.0820563562
C 0.9336716470 4.2405183021 -0.5990074841
C 1.1674628951 2.9346929425 -0.8466095126
H -1.8804754730 2.6762905758 0.2084289543
H -0.9188328189 5.2526354191 0.2092944626
H 2.0013135579 2.3711712192 -1.2305561807
H 1.6275811902 5.0523196634 -0.7678441680
O 2.1553269982 -0.0203871243 -0.0836837182
C 2.8713086477 0.3665169399 1.0591859662
C 4.1247434588 -0.1318211991 0.9955211395
C 4.2283462327 -0.8771760118 -0.2339742025
C 3.0331407263 -0.7927047576 -0.8550273302
H 2.3355028274 0.9991381314 1.7465484489
H 4.9050534031 0.0175979988 1.7294024545
H 2.6325951743 -1.1762783272 -1.7783921236
H 5.0992087726 -1.4024484995 -0.6013684066
O -0.0284550025 -2.0771359953 0.2618807077
C 0.9246910128 -2.7958299659 0.9970292842
C 0.5707907399 -4.0979924959 1.0361836621
C -0.6570574487 -4.2327647042 0.2937297024
C -0.9886333375 -3.0052429119 -0.1592600004
H 1.7610856665 -2.2223750838 1.3640000294
H 1.1168276181 -4.8890017642 1.5317357449
H -1.8051225980 -2.5979261177 -0.7331664625
H -1.2151554619 -5.1437462223 0.1271265374
O -2.2160087275 0.0638185897 -0.2443092299
C -3.0701635423 -0.3595238433 0.7837412812
C -4.3470247698 -0.0591207248 0.4638938386
C -4.3246982549 0.5865727152 -0.8244063680
C -3.0358593765 0.6396257336 -1.2230202132
H -2.5956963321 -0.8739839569 1.6033667293
H -5.2204701181 -0.2754486631 1.0639176780
H -2.5231543468 1.0277076084 -2.0879094457
H -5.1778999927 0.9570787758 -1.3760220158
O -0.0989590637 0.4570392555 1.8500616829
H -0.7732370828 1.0566695751 2.2164153308
H 0.0373073931 -0.2499519327 2.5064391105
C 0.0667377032 -0.2994083460 -2.2887802107
N 0.1053317312 -0.4665625980 -3.4380737862
C 0.1486065983 -0.6701855525 -4.8553231190
H -0.5155279456 -1.4986625206 -5.1139168552
H 1.1731507357 -0.9080182720 -5.1515707716
H -0.1811067387 0.2438958408 -5.3552525961
