43
# extracted from Terachem optimization
Cr -0.0013735756 0.0040393092 0.0132289784
C 0.0422771038 2.1204357423 -0.0068114128
N 0.1014538806 3.2756824088 -0.0429295568
C 0.1835754893 4.7091210736 -0.1014688252
H 0.9561418408 4.9826042441 -0.8256920917
H 0.4425894175 5.0860512405 0.8917684067
H -0.7871956640 5.1026491492 -0.4159046430
C 2.1139006526 0.0514923561 0.0279667480
N 3.2689280652 0.1225747543 0.0507545079
C 4.7011496111 0.2313552043 0.0855634962
H 5.1326108078 -0.6107937532 -0.4620457956
H 5.0260815851 0.2131087846 1.1292641430
H 4.9893733012 1.1752539632 -0.3851007901
C -0.0438515979 -2.1123654305 -0.0115227935
N -0.1018200612 -3.2676970544 -0.0495186263
C -0.1825844530 -4.7010846404 -0.1103597303
H -0.9555154525 -4.9743573319 -0.8342854606
H -0.4401682253 -5.0799608563 0.8825012829
H 0.7883121780 -5.0931041176 -0.4262021362
C -2.1160679121 -0.0491494714 0.0239735576
N -3.2704362012 -0.1285976054 0.0440765836
C -4.7016829622 -0.2497239195 0.0722647380
H -5.0144796185 -0.8792405683 -0.7652855621
H -5.1433546648 0.7464395755 -0.0175480875
H -4.9914482309 -0.7083602684 1.0214892388
O -0.0030109416 0.0008327458 2.0586537328
C -0.7642388765 0.8411928518 2.9116127561
C -0.4843528411 0.5354288021 4.1915387806
C 0.4856028260 -0.5354689919 4.1894499899
C 0.7613505839 -0.8398842543 2.9083349085
H -1.4057879009 1.5531416195 2.4195251556
H -0.9122505614 1.0119042330 5.0644699520
H 1.3999306567 -1.5525166824 2.4134403021
H 0.9163067986 -1.0127858011 5.0605300921
O 0.0004420290 0.0051813447 -2.0353415572
C -0.8080890012 0.8002239041 -2.8878302163
C -0.5125919320 0.5099764278 -4.1678437773
C 0.5160973041 -0.5043115161 -4.1659597767
C 0.8094430217 -0.7920155121 -2.8849761786
H -1.4926723451 1.4706730934 -2.3955315283
H -0.9687573031 0.9589914501 -5.0408627055
H 1.4929738819 -1.4615621534 -2.3902052985
H 0.9733171615 -0.9554865061 -5.0371840934
