67
# extracted from Terachem optimization
Cr -0.0455732722 0.0061948229 0.0093765670
C 0.0078123884 5.0299887592 0.1089054933
C 1.1740062854 4.3091263155 -0.1490655053
C 1.1145742071 2.9201326499 -0.1753914774
N -0.0252143052 2.2248692506 0.0453981477
C -1.1483634043 2.9345547514 0.2982174543
C -1.1746068941 4.3251144656 0.3357099847
H 0.0216440140 6.1152573888 0.1341664760
H 2.1205934524 4.8088617710 -0.3290522647
H 1.9998164552 2.3298829214 -0.3709714068
H -2.0449420429 2.3522872310 0.4662468110
H -2.1078351865 4.8397629080 0.5403648011
C 5.4650444521 -0.0067768468 -0.1457123275
C 4.7985094688 -0.0778854035 1.0773648768
C 3.4059437564 -0.0752884062 1.0818735212
N 2.6549801860 0.0009347769 -0.0362032086
C 3.3174053020 0.0740384068 -1.2093490752
C 4.7059857332 0.0703704069 -1.3133827450
H 6.5497104439 -0.0121401417 -0.1877157291
H 5.3435016403 -0.1360825193 2.0139713665
H 2.8631127369 -0.1354959326 2.0208503975
H 2.6978994889 0.1416293235 -2.0986800210
H 5.1776765350 0.1285494593 -2.2889313338
C -0.0343166926 -5.0248636498 -0.0552567169
C -1.2048047914 -4.3151293995 -0.3235311760
C -1.1717499612 -2.9247642105 -0.2929455898
N -0.0530941149 -2.2190214025 -0.0097456393
C 1.0741410250 -2.9185782120 0.2531949533
C 1.1259455540 -4.3081587465 0.2377454549
H -0.0260816591 -6.1102837856 -0.0757265337
H -2.1337933261 -4.8259930824 -0.5549305822
H -2.0599442769 -2.3413282032 -0.4962730741
H 1.9549755843 -2.3296297904 0.4716907356
H 2.0627463806 -4.8120674793 0.4510166539
C -5.5261071472 0.0124375821 0.0594556062
C -4.8241042324 -0.0604152955 -1.1442494636
C -3.4317410371 -0.0555237056 -1.1083282358
N -2.7142935495 0.0175408213 0.0317240972
C -3.4095549974 0.0915634942 1.1854218685
C -4.8008374126 0.0916342144 1.2488768246
H -6.6120500494 0.0088200849 0.0701024712
H -5.3406850655 -0.1182655215 -2.0970647862
H -2.8571143643 -0.1123364747 -2.0285919897
H -2.8146867448 0.1568683932 2.0919749203
H -5.2995856958 0.1526637808 2.2108020143
C 0.2041532334 -0.1031131856 5.0018588134
C 0.7187970604 0.9796411634 4.2884569832
C 0.6043924531 0.9872506758 2.9024779537
N 0.0228878524 -0.0136318237 2.2046420551
C -0.4786331268 -1.0538377159 2.9070549114
C -0.4114374978 -1.1354153138 4.2936325121
H 0.2798176664 -0.1411488902 6.0841008692
H 1.2029283366 1.8100201836 4.7920656988
H 0.9907294078 1.8141793935 2.3199584267
H -0.9446845903 -1.8408815859 2.3268475386
H -0.8335264362 -1.9956495758 4.8021933562
C 0.0135334750 0.0564868610 -5.0013319284
C 0.4707439081 -1.0538690558 -4.2911828863
C 0.4216504402 -1.0305597239 -2.9018814126
N -0.0486425063 0.0224486532 -2.1960882495
C -0.4876333250 1.0930705797 -2.8953070108
C -0.4739586148 1.1499450065 -4.2850135422
H 0.0376011657 0.0692894391 -6.0866936824
H 0.8616997325 -1.9287414512 -4.8000482546
H 0.7707135390 -1.8735756814 -2.3200351089
H -0.8568416718 1.9254225374 -2.3093278901
H -0.8379541657 2.0385007058 -4.7900848307
