13
# extracted from Terachem optimization
Cr 0.0000134300 -0.0001656627 -0.0000036748
C -0.0000264521 2.6298337656 -0.0000079627
O 0.0000098897 3.7563175534 -0.0000109888
C 2.2320662422 0.0000419832 -0.0000194363
O 3.3559082334 -0.0000185778 0.0000067902
C -0.0000215980 -2.6298328585 0.0000124803
O 0.0000143789 -3.7563153347 0.0000374885
C -2.2321056906 0.0000509556 -0.0000368264
O -3.3559491107 -0.0000213434 0.0000343906
C 0.0000089644 -0.0000103885 2.2319724469
O 0.0000041489 0.0000115958 3.3558122205
C 0.0000297019 0.0000264973 -2.2319780550
O 0.0000476804 0.0000813082 -3.3558187229
