151
# extracted from Terachem optimization
Cr 0.0270338012 -0.0466421477 -0.0330567596
C 0.3818769498 1.9198286794 -0.3102608004
N 0.5506084718 3.0673435192 -0.4783100932
C 0.7231333333 4.4269694291 -0.6592351450
C -0.2082209495 5.3222448866 -0.1098146389
C -0.0298816358 6.6836879044 -0.3017603442
C 1.0654699395 7.1998891759 -1.0245454853
C 1.2106580763 8.7181463675 -1.2094095494
C -0.0077565417 9.2406562556 -2.0109821616
C 1.2454635454 9.4013917836 0.1795894359
C 2.4945125225 9.0960829927 -1.9717360659
C 1.9801577756 6.2753058345 -1.5576430229
C 1.8194383131 4.9033508401 -1.3882151837
H -1.0561462875 4.9430129344 0.4513279364
H -0.7621477730 7.3626531069 0.1220152371
H -0.0575618021 8.7764587742 -3.0021072467
H 0.0742781966 10.3243546016 -2.1483709175
H -0.9537107332 9.0431618088 -1.4958642914
H 2.0996567172 9.0543919959 0.7716524782
H 0.3339538616 9.2102095810 0.7546029026
H 1.3370923725 10.4859834061 0.0577532619
H 3.3977365346 8.7729299430 -1.4414484111
H 2.5487998601 10.1840977714 -2.0761628070
H 2.5133165919 8.6720548813 -2.9820484042
H 2.8373472278 6.6237658851 -2.1204410405
H 2.5340154541 4.2037404834 -1.8099284701
C 1.9831488834 -0.3385422342 -0.3857561605
N 3.1237251803 -0.5315222548 -0.5770755472
C 4.4632534334 -0.7748489255 -0.8187310687
C 4.8342864506 -1.7585045157 -1.7491473888
C 6.1809260518 -1.9925969873 -1.9836247703
C 7.1922688022 -1.2745580459 -1.3130279944
C 8.6691269318 -1.5737361757 -1.6127816457
C 8.9603925572 -3.0627516031 -1.3027093122
C 8.9459651084 -1.2948657665 -3.1110917877
C 9.6247196820 -0.7065145850 -0.7722729941
C 6.7853476678 -0.2987528095 -0.3869798115
C 5.4409925786 -0.0420585916 -0.1353644245
H 4.0694199151 -2.3226531815 -2.2732296646
H 6.4536706264 -2.7545972003 -2.7060833276
H 8.7780561436 -3.2899069930 -0.2465970052
H 10.0096973686 -3.2874889211 -1.5216300434
H 8.3452272293 -3.7380779782 -1.9061789030
H 8.7574380875 -0.2444090508 -3.3587419578
H 8.3257877753 -1.9148803701 -3.7667728748
H 9.9939614914 -1.5147280270 -3.3411133660
H 9.4928865746 0.3629954852 -0.9721771628
H 10.6601005180 -0.9584855755 -1.0217708994
H 9.4972808471 -0.8784309747 0.3026266559
H 7.5259519748 0.2772759636 0.1539881642
H 5.1451708523 0.7147395229 0.5841645621
C -0.3438437146 -2.0051712166 0.2570568999
N -0.5445600766 -3.1442323761 0.4475267478
C -0.7944496996 -4.4821644006 0.6860119742
C -1.7373014684 -4.8505908868 1.6592096252
C -1.9778507957 -6.1963926650 1.8901340108
C -1.3021847945 -7.2092936121 1.1785152489
C -1.6066137187 -8.6852328206 1.4762120510
C -1.3014063834 -8.9758932482 2.9665409223
C -3.1046327640 -8.9594303953 1.1931124618
C -0.7653601899 -9.6428654907 0.6119741543
C -0.3650659334 -6.8048473502 0.2118997157
C -0.1062826334 -5.4614688829 -0.0408907026
H -2.2653240808 -4.0842574183 2.2175664959
H -2.7089994861 -6.4677610253 2.6442375084
H -0.2455888960 -8.7954420379 3.1965088525
H -1.5230320008 -10.0246088355 3.1913667731
H -1.9056537641 -8.3588468482 3.6394592570
H -3.3490787133 -8.7708952052 0.1419361023
H -3.7613290259 -8.3384227960 1.8111490978
H -3.3365147859 -10.0070511125 1.4126600462
H -0.9610324882 -9.5102706298 -0.4582175987
H -1.0185197330 -10.6775811853 0.8629610544
H 0.3092396661 -9.5184902248 0.7878961807
H 0.1788915589 -7.5469283825 -0.3593047549
H 0.6215281543 -5.1670008288 -0.7901880258
C -1.9306428598 0.2484730285 0.3124740926
N -3.0720107797 0.4387653676 0.5018979059
C -4.4129965840 0.6760523715 0.7416268563
C -4.7896786276 1.6579195508 1.6716877499
C -6.1376424495 1.8861778279 1.9042028247
C -7.1448696052 1.1638972223 1.2319574257
C -8.6234271335 1.4574098252 1.5291150434
C -8.9017971501 1.1784698089 3.0271133787
C -8.9196840584 2.9451187682 1.2175503384
C -9.5742406963 0.5859987364 0.6875276891
C -6.7323668869 0.1896494149 0.3067595588
C -5.3865114913 -0.0612526261 0.0570789949
H -4.0280503854 2.2248460922 2.1975355954
H -6.4148504511 2.6466243667 2.6266061488
H -8.7102479230 0.1287741733 3.2756320631
H -9.9508929143 1.3950030054 3.2552797992
H -8.2847686311 1.8008429113 3.6835303278
H -8.7361164255 3.1722993426 0.1616485925
H -8.3082420771 3.6230811299 1.8218732885
H -9.9702482427 3.1661816105 1.4342015305
H -9.4456965477 0.7577337225 -0.3872656986
H -10.6109994235 0.8341207795 0.9351553119
H -9.4385464267 -0.4828479844 0.8883250538
H -7.4695962440 -0.3898913558 -0.2350904751
H -5.0863963437 -0.8172578246 -0.6615024542
C 0.2991796531 0.2981986623 1.9333465653
N 0.4690500053 0.4803104869 3.0788200828
C 0.6658242303 0.6986345136 4.4291202384
C 1.7641930995 1.4594245433 4.8599459992
C 1.9464172530 1.6722188808 6.2180056856
C 1.0616393724 1.1471671940 7.1825399592
C 1.3103778013 1.4170191249 8.6738859105
C 2.6944774168 0.8448573560 9.0690256844
C 1.2949766978 2.9460095720 8.9202090373
C 0.2420607166 0.7685593473 9.5742444553
C -0.0258618155 0.3886097750 6.7161926274
C -0.2320943820 0.1603381992 5.3594136144
H 2.4553054546 1.8717804286 4.1318521200
H 2.7984292918 2.2633018420 6.5363558312
H 2.7362589940 -0.2380481714 8.9079501060
H 2.8845216057 1.0364633728 10.1305627975
H 3.5095166575 1.3038369939 8.4997016269
H 0.3237931158 3.3805060255 8.6579290082
H 2.0661647483 3.4653161912 8.3417325448
H 1.4821271807 3.1531276484 9.9793845888
H -0.7633811013 1.1488211425 9.3602376541
H 0.4604861629 0.9997405856 10.6213278309
H 0.2296865418 -0.3231245921 9.4778517945
H -0.7316187869 -0.0361661954 7.4194515637
H -1.0769111781 -0.4286135426 5.0169032354
C -0.2358280480 -0.3856749879 -2.0007577899
N -0.3922686274 -0.5512910605 -3.1506379917
C -0.5507088289 -0.7309220924 -4.5116406021
C 0.4183380699 -0.2287858474 -5.3950421289
C 0.2489562444 -0.4142452384 -6.7584814098
C -0.8700500708 -1.0898196699 -7.2880481888
C -1.0050854760 -1.2671988800 -8.8079669020
C -1.0131006161 0.1265329147 -9.4827777366
C 0.2036597517 -2.0850383358 -9.3271143701
C -2.2975748151 -2.0079942076 -9.1993301145
C -1.8208931207 -1.5783768465 -6.3753098555
C -1.6736298042 -1.4085676210 -5.0020734863
H 1.2841993501 0.2969298907 -5.0054565810
H 1.0066390723 -0.0231292198 -7.4290632922
H -1.8613426731 0.7287392632 -9.1389663006
H -1.0970589631 0.0129331041 -10.5689263629
H -0.0947351386 0.6863614189 -9.2789719067
H 0.2372902887 -3.0781574262 -8.8655654992
H 1.1566674389 -1.5846859457 -9.1258284366
H 0.1238117571 -2.2184637783 -10.4114188760
H -2.3380843863 -3.0165618241 -8.7725747956
H -2.3407947899 -2.1141137702 -10.2876748770
H -3.1955557606 -1.4616500237 -8.8888586417
H -2.6975814358 -2.1030431484 -6.7345749211
H -2.4177738999 -1.7923461580 -4.3115732391
