57
# extracted from Terachem optimization
Cr 0.0403502028 -0.0056846774 -0.1324943732
O 0.1268236239 -0.0082532667 1.9594649789
H 0.9384965775 0.1560251343 2.4761479933
H -0.6397041342 0.0818681374 2.5574473425
O 0.0311746261 -0.0223619923 -2.2108884481
C 1.1670725636 -0.2034885937 -3.0447148564
C 0.7677573513 -0.2640929264 -4.3287406253
C -0.6691906006 -0.1264283816 -4.3518239108
C -1.0914587295 0.0124399812 -3.0805231856
H 2.1100665836 -0.2540657880 -2.5301841317
H 1.4185036296 -0.3904763797 -5.1848522297
H -2.0458570930 0.1397348963 -2.5999822080
H -1.3017795128 -0.1272670461 -5.2305421393
C -0.0697651310 4.9476161900 -0.2346803244
C -0.1195547113 4.2533904128 0.9764226279
C -0.0664253934 2.8659510133 0.9602356736
N 0.0430998769 2.1430720758 -0.1832161557
C 0.1063281985 2.8280305599 -1.3577097302
C 0.0483569350 4.2148594130 -1.4183582597
H -0.1184062751 6.0323370289 -0.2570896403
H -0.1992658365 4.7747783511 1.9248320830
H -0.1057283948 2.2983977639 1.8789213027
H 0.2136626642 2.2431310288 -2.2605952913
H 0.0984254345 4.7072200545 -2.3842442222
C 4.9779726845 -0.0557609101 0.2442773321
C 4.2364135643 -1.2286532375 0.3979541997
C 2.8551279723 -1.1825309896 0.2664150952
N 2.1739854752 -0.0322336001 0.0068153471
C 2.9093357842 1.1047093269 -0.1435764841
C 4.2930818120 1.1278497653 -0.0382100440
H 6.0598393062 -0.0646782266 0.3385029425
H 4.7163547862 -2.1776471789 0.6143403838
H 2.2703841985 -2.0844069243 0.3620197916
H 2.3582346056 2.0062454618 -0.3622266899
H 4.8195573959 2.0665201309 -0.1746100699
C -0.2490694821 -4.9336066777 -0.1264439400
C -0.0198793393 -4.2297856356 1.0604064247
C 0.0687623293 -2.8466280523 1.0164074584
N -0.0618685889 -2.1324820560 -0.1367778397
C -0.2825703624 -2.8247552312 -1.2820354001
C -0.3781969326 -4.2118230062 -1.3125291544
H -0.3229105935 -6.0169399361 -0.1251873387
H 0.0910955697 -4.7412270498 2.0114917279
H 0.2546491717 -2.2702124197 1.9125594738
H -0.3887944492 -2.2501782582 -2.1902671381
H -0.5529409771 -4.7106308355 -2.2597248938
C -4.8621809479 0.1727171072 0.5473598375
C -4.1157710722 -0.9285002837 0.9703027802
C -2.7477391679 -0.9523402144 0.7334783082
N -2.0844543568 0.0623780851 0.1156341046
C -2.8212017334 1.1351438102 -0.2819334391
C -4.1947211708 1.2182624681 -0.0941003032
H -5.9342680180 0.2153670580 0.7143344447
H -4.5816675321 -1.7694888767 1.4740608186
H -2.1582536537 -1.8055643071 1.0379140779
H -2.2847293923 1.9404898669 -0.7639844027
H -4.7272417200 2.0970715556 -0.4426127972
