67
# extracted from Terachem optimization
Cr -0.0902593317 -0.0173321435 0.0085047278
N -0.3926076921 2.4764204794 0.4239850869
H -1.3658926857 2.7174509193 0.6214321507
H 0.1368926889 2.8543290973 1.2118751751
H -0.1413541017 3.0548190032 -0.3799042774
N 2.0579601838 0.2595383897 -0.2883137976
H 2.2972479679 1.2522645969 -0.3211225748
H 2.6263982198 -0.1432155484 0.4589435725
H 2.3998532111 -0.1389821428 -1.1647361533
N 0.2133629671 -2.5115499895 -0.3969006289
H 1.1929950327 -2.7598275615 -0.5485279657
H -0.0841112446 -3.0955106359 0.3869607731
H -0.2788892544 -2.8764063210 -1.2145519324
N -2.2382775559 -0.2949411735 0.3007686583
H -2.4794080313 -1.2876805687 0.3162563962
H -2.5761236376 0.0865673439 1.1862354922
H -2.8086612870 0.1239756104 -0.4360861278
C 0.2405781331 -0.3318236868 2.1536265032
N 0.4257149389 -0.4882854590 3.2965653196
C 0.6496991964 -0.6692633833 4.6535003820
C 0.8597545710 -1.9634462611 5.1553040560
C 1.0870951155 -2.1244852178 6.5132135076
C 1.1143275663 -1.0304064525 7.4038808422
C 1.3750510871 -1.2681689446 8.8978607298
C 0.2744337947 -2.2031347226 9.4586378711
C 2.7608946670 -1.9401222454 9.0651050046
C 1.3641222895 0.0417109002 9.7092241291
C 0.8969301834 0.2493913634 6.8626521870
C 0.6660224704 0.4423678958 5.5048997868
H 0.8439527396 -2.8192100349 4.4879458639
H 1.2483155724 -3.1284521041 6.8904559440
H -0.7197360712 -1.7554724889 9.3520788131
H 0.4517282078 -2.3821351951 10.5242442440
H 0.2640186880 -3.1775963449 8.9593311897
H 3.5621438347 -1.2992617340 8.6809655117
H 2.8183874570 -2.9038652648 8.5485672098
H 2.9557175837 -2.1224236720 10.1270938619
H 2.1447004711 0.7366381675 9.3795920599
H 1.5537511783 -0.1832776726 10.7629448694
H 0.3950672744 0.5507671860 9.6558289493
H 0.9073753876 1.1195510113 7.5071104838
H 0.5011139232 1.4387394078 5.1073171899
C -0.4133104016 0.3047060255 -2.1363673200
N -0.5746050822 0.4760740856 -3.2807393307
C -0.7627374648 0.6821341997 -4.6395495454
C -0.4703243699 1.9375349738 -5.1956460481
C -0.6579551060 2.1261632459 -6.5560363754
C -1.1332686228 1.0972692383 -7.3965396239
C -1.3222902585 1.3632382711 -8.8966067909
C -2.3449307059 2.5131535817 -9.0778833998
C 0.0381459440 1.7811074770 -9.5091393783
C -1.8413978471 0.1239812636 -9.6497775848
C -1.4164456584 -0.1450025886 -6.8012132479
C -1.2375424971 -0.3645253120 -5.4394611796
H -0.1036194733 2.7428395757 -4.5671965999
H -0.4285922603 3.0994779692 -6.9757338148
H -3.3210109537 2.2479364855 -8.6569839803
H -2.4819995822 2.7185398404 -10.1446211113
H -2.0113185902 3.4425159470 -8.6044795197
H 0.7833837911 0.9848177853 -9.4050259493
H 0.4387607845 2.6868356407 -9.0425405285
H -0.0867857074 1.9880790026 -10.5770607507
H -1.1443824009 -0.7193446467 -9.5854514937
H -1.9595423570 0.3672475379 -10.7098722934
H -2.8205141544 -0.2012393218 -9.2803275001
H -1.7831521732 -0.9653966413 -7.4056039406
H -1.4617299244 -1.3314014030 -5.0002319689
