49
# extracted from Terachem optimization
Cr 0.0040524311 0.0129951732 0.0040051938
C -0.1109203159 0.3713515603 2.1491181532
N -0.1656820192 0.5711672484 3.2907197310
C -0.2338880314 0.8227718905 4.6995353833
H 0.5358577894 0.2321648447 5.2025098031
H -1.2223901051 0.5321251337 5.0634648793
H -0.0690824805 1.8884494868 4.8765891848
C 0.1328110548 -0.3254195461 -2.1419119016
N 0.1994426738 -0.4984319614 -3.2871575303
C 0.2869682207 -0.7127482583 -4.7006440764
H 0.1361934935 -1.7751678391 -4.9081691489
H 1.2754881353 -0.3992805722 -5.0450232489
H -0.4841098265 -0.1187544689 -5.1973857551
O 0.0170383577 2.1024233959 -0.3354292336
C -1.0765831781 2.9706814716 -0.1876204325
C -0.6866798054 4.2300902194 -0.4711544339
C 0.7121597896 4.1822328871 -0.8164272224
C 1.1076987120 2.8961712640 -0.7263304680
H -2.0012707259 2.5021844854 0.1049066897
H -1.3163198015 5.1086724935 -0.4444748093
H 2.0346637498 2.3695243576 -0.8772587880
H 1.3380133651 5.0179571194 -1.0980735760
O 2.5196315080 0.0140068261 0.0568237396
C 3.3226497620 0.5412365430 1.0648790518
C 4.6255638931 0.2977355554 0.7968821013
C 4.6678856224 -0.4253344342 -0.4469126533
C 3.3882734645 -0.5745902759 -0.8583264385
H 2.8017139062 1.0513431336 1.8593371520
H 5.4697931103 0.5939980706 1.4039607706
H 2.9243285741 -1.0448917367 -1.7102205755
H 5.5502872148 -0.7822632001 -0.9596354513
O -0.0084714282 -2.0780243874 0.3300346227
C 1.0487079867 -2.8839297930 0.7824072054
C 0.6284563846 -4.1624553987 0.8668980653
C -0.7528445966 -4.1923866350 0.4552745700
C -1.1081733684 -2.9306341451 0.1395591228
H 1.9768988210 -2.3700391478 0.9669580908
H 1.2263956058 -5.0049188716 1.1861178001
H -2.0091195313 -2.4542797760 -0.2081793128
H -1.3949903969 -5.0610983998 0.4073840157
O -2.5210839296 0.0087899781 -0.0982460179
C -3.3912249311 -0.0844972849 0.9847620347
C -4.6713893265 -0.1263299612 0.5515505930
C -4.6287377279 -0.0581971167 -0.8856201767
C -3.3250702518 0.0224719616 -1.2357419427
H -2.9275396098 -0.1175103925 1.9573345194
H -5.5540590774 -0.1965822915 1.1721177857
H -2.7984702694 0.1044567377 -2.1725676599
H -5.4733647784 -0.0675107063 -1.5606851252
