26
# extracted from Terachem optimization
Cr -0.0012571025 0.0012445188 0.1392487923
C 0.0301706388 2.0405581195 -0.0710888965
O 0.0431965370 3.1548166476 -0.2668229743
C 2.0456454666 -0.0256418984 0.1516600816
O 3.1756761787 -0.0336161482 0.1837924658
C -0.0328268012 -2.0343437978 -0.0889202666
O -0.0462096848 -3.1466094205 -0.2959523259
C -2.0485867881 0.0268095115 0.1554372325
O -3.1786212010 0.0318409707 0.1886583632
C 0.0049335511 -0.0286153733 5.0202902145
C -0.1071258959 1.1718101857 4.3150435921
C -0.1077108531 1.1434580423 2.9293699039
N 0.0018167432 -0.0102635202 2.2131412228
C 0.1122312275 -1.1738623385 2.9132806434
C 0.1144123295 -1.2192861733 4.2982426695
H 0.0068928139 -0.0356110705 6.1062681046
H -0.1947727171 2.1239316583 4.8274248170
H -0.2002996529 2.0664063055 2.3716278723
H 0.2040024632 -2.0916983018 2.3468590908
H 0.2017797175 -2.1774976996 4.7984338186
C -0.0020958663 0.0037845531 -1.9813277612
N -0.0012547660 0.0024051656 -3.1399667283
C 0.0006172727 0.0029892103 -4.5740984764
H -0.6119999993 -0.8322415401 -4.9244005623
H 1.0312155167 -0.1100133398 -4.9214622395
H -0.4164291132 0.9517647861 -4.9226058265
