51
# extracted from Terachem optimization
Cr -0.0114447541 -0.0144348365 0.0184441604
C -0.0369862431 4.9437032764 0.8495124648
C 1.1617098257 4.2317552600 0.8180504112
C 1.1274731531 2.8624758724 0.5813920235
N -0.0174977782 2.1674248821 0.3773357578
C -1.1723702022 2.8750543531 0.4115565262
C -1.2255050583 4.2449754324 0.6404933504
H -0.0442198117 6.0141461228 1.0314550298
H 2.1159947017 4.7244065531 0.9721536571
H 2.0409907155 2.2865345933 0.5487898610
H -2.0764359294 2.3073407106 0.2462282082
H -2.1863338433 4.7485278198 0.6521173891
C 5.0072479806 -0.0297480795 0.0160008507
C 4.2938164986 0.2364439850 -1.1532638222
C 2.9038088678 0.2381432364 -1.1088932192
N 2.1981295725 -0.0092493990 0.0188287126
C 2.9030620971 -0.2644869464 1.1455835778
C 4.2927454008 -0.2837680688 1.1872099723
H 6.0926286707 -0.0390632872 0.0147650050
H 4.8017644212 0.4402950461 -2.0900927614
H 2.3133025822 0.4399839269 -1.9934700358
H 2.3120985001 -0.4568539870 2.0318345666
H 4.7989648376 -0.4958343790 2.1230635053
C -0.0080367880 -4.9708173537 -0.8358888175
C 1.1882168190 -4.2599142947 -0.7469333533
C 1.1444099987 -2.8919755405 -0.5043070683
N -0.0080566696 -2.1969311101 -0.3465615648
C -1.1606851202 -2.9038384002 -0.4361258313
C -1.2042641524 -4.2723342853 -0.6762496637
H -0.0079208625 -6.0401528763 -1.0231839858
H 2.1481425352 -4.7521303960 -0.8616358059
H 2.0560959410 -2.3174662820 -0.4278051992
H -2.0714061102 -2.3373222821 -0.3059170012
H -2.1642249585 -4.7745246813 -0.7345115239
C -5.0383175409 -0.0355949635 0.0243607846
C -4.3210666543 -0.2278153662 1.2056651458
C -2.9312690946 -0.2149829088 1.1594924296
N -2.2289443686 -0.0230002516 0.0188929412
C -2.9377201188 0.1612967114 -1.1194477248
C -4.3276170291 0.1618722448 -1.1601062369
H -6.1237480559 -0.0399871566 0.0265355233
H -4.8256209774 -0.3866452712 2.1529295341
H -2.3371518419 -0.3629830180 2.0523694502
H -2.3489551917 0.3130167158 -2.0152723058
H -4.8372042215 0.3143648358 -2.1056953053
O -0.0123642689 -0.3384936993 2.2832007612
H -0.0163122746 0.3815003661 2.9358061960
H -0.0190426180 -1.1789110399 2.7712719450
O -0.0121581519 0.3121817925 -2.2461516659
H -0.0110383449 1.1516222036 -2.7361155401
H -0.0001660352 -0.4088137361 -2.8974016173
