33
# extracted from Terachem optimization
Cr 0.0014731530 0.0153155393 0.1199641011
O 0.3975658267 2.0229641887 0.0698458968
H 1.0725321213 2.4376669265 -0.5053843051
H -0.2879165230 2.6975240892 0.2550264720
O 1.9647397150 -0.3934583973 0.3316483832
H 2.6522435014 -0.3044173849 -0.3605120839
H 2.4081904943 -0.4129417839 1.2036559542
O -0.4029986191 -1.9746120888 0.0585639667
H 0.2851451311 -2.6388133472 0.2687897496
H -1.0003820199 -2.3710340987 -0.6089188365
O -1.9559618952 0.3606443485 -0.1793081287
H -2.6580780226 0.4114775489 0.5002010694
H -2.3633084207 0.4422375711 -1.0664529548
O 0.2879983785 -0.0075765822 -1.9529359182
C 0.7618639153 -1.0817920576 -2.7627364575
C 0.5868264159 -0.7727378787 -4.0604959966
C -0.0213447858 0.5366847999 -4.1278494371
C -0.1943888584 0.9770648584 -2.8681784507
H 1.1876178378 -1.9200482213 -2.2344209562
H 0.8635807797 -1.3945407655 -4.9035673023
H -0.5628559007 1.8884744828 -2.4248667287
H -0.2821314098 1.0770662306 -5.0300299820
C -0.2938710794 0.0242815913 4.9191846676
C 0.4430048349 1.0059938472 4.2451951219
C 0.4774452095 0.9969370063 2.8592953976
N -0.1828985254 0.0501121304 2.1256535435
C -0.9061354440 -0.9030130227 2.7850815572
C -0.9802572856 -0.9374543598 4.1697309640
H -0.3321505212 0.0080705694 6.0054156911
H 0.9865181671 1.7762339437 4.7845331790
H 1.0256204457 1.7515176103 2.3094420819
H -1.4120008359 -1.6475765149 2.1836803932
H -1.5639168624 -1.7181773120 4.6482368271
