67
# extracted from Terachem optimization
Cr -0.0942920618 -0.0021164706 0.0408366202
C 4.6142006391 -0.8781059916 0.2267890806
C 5.1163908102 0.3566528506 0.5862585767
C 4.2339768786 1.4495916739 0.7492359806
C 4.6849750776 2.7624156547 1.1112223733
C 3.8017368985 3.7899880270 1.2472852736
C 2.3952897031 3.5866697567 1.0466621880
C 1.4546366122 4.6319227648 1.1845369029
C 0.1134686748 4.3741323124 0.9830285164
C -0.2802423375 3.0673329356 0.6561760452
N 0.5768583529 2.0516223077 0.5228067200
C 1.9096120765 2.2973920867 0.7010064050
C 2.8510972840 1.2125363136 0.5327286595
N 2.3691790491 -0.0024342808 0.1624018417
C 3.2283902636 -1.0083335422 0.0225233638
H 5.2647511770 -1.7363219668 0.0961140351
H 6.1815038112 0.4996414443 0.7458345823
H 5.7473079932 2.9228891517 1.2694796815
H 4.1476540439 4.7843622642 1.5132044001
H 1.7969555921 5.6294105581 1.4459357686
H -0.6340126722 5.1544242218 1.0761890770
H -1.3262497921 2.8289335111 0.4952585212
H 2.8006702581 -1.9655894847 -0.2661148673
C -0.2659265586 -0.6256699994 4.4381533156
C -0.4736542021 -1.9883120687 4.5289923895
C -0.5679991076 -2.7620743361 3.3497456887
C -0.7821090019 -4.1811474355 3.3630254929
C -0.8689012561 -4.8860362541 2.2002888556
C -0.7478334501 -4.2306476803 0.9292759663
C -0.8300644581 -4.9206616825 -0.3014345603
C -0.7027685412 -4.2195979527 -1.4839145624
C -0.4929233140 -2.8307528961 -1.4366517452
N -0.4083008123 -2.1464300143 -0.2952084989
C -0.5342840147 -2.8299208892 0.8809624570
C -0.4443421245 -2.0864025126 2.1098829389
N -0.2402574420 -0.7372322858 2.0341310101
C -0.1528215668 -0.0389167704 3.1676375913
H -0.1876605943 -0.0058162759 5.3245888391
H -0.5643191732 -2.4731567735 5.4969458563
H -0.8735834881 -4.6830750056 4.3214624020
H -1.0319739060 -5.9594168338 2.2164956195
H -0.9933217949 -5.9946867293 -0.3052055105
H -0.7611072319 -4.7191871308 -2.4448113575
H -0.3928749934 -2.2658613958 -2.3575653568
H 0.0156025481 1.0269176075 3.0565179906
C 0.6734590918 0.6579687597 -4.2496548212
C -0.5788385349 0.9127072056 -4.7731323933
C -1.7067987203 0.9325410032 -3.9216647476
C -3.0301711772 1.1879954432 -4.4133684215
C -4.0988724809 1.1965514356 -3.5698357340
C -3.9289744712 0.9606428562 -2.1651826464
C -5.0140332614 0.9672486356 -1.2580603263
C -4.7845310717 0.7384614576 0.0834464086
C -3.4640051852 0.5128453878 0.5135870319
N -2.4197535323 0.5052174529 -0.3093737279
C -2.6336694953 0.7133962053 -1.6372718228
C -1.5005909620 0.6857176056 -2.5377095488
N -0.2542805159 0.4208907302 -2.0413989639
C 0.7901304127 0.4156082550 -2.8731263698
H 1.5578216490 0.6410962859 -4.8771052410
H -0.7085409245 1.1013887173 -5.8352044628
H -3.1613543475 1.3727083069 -5.4752822262
H -5.0991582133 1.3862844697 -3.9476169178
H -6.0188819510 1.1524080692 -1.6273879332
H -5.5963310156 0.7348785889 0.8029839460
H -3.2544131046 0.3369361183 1.5660595162
H 1.7533934773 0.2107451688 -2.4172740203
