50
# extracted from Terachem optimization
Cr 0.0971879466 -0.0117515696 0.2326879090
C 0.4052606516 0.1267489297 -2.0339515017
O 0.5519248057 0.2008101807 -3.1498321652
O 0.0851569976 2.1322689091 0.1653068538
C -1.0432989969 2.9390245280 -0.0858574510
C -0.6380166767 4.1818980601 -0.4134090125
C 0.8036608778 4.1929059991 -0.3807003360
C 1.2125963411 2.9560092380 -0.0344004696
H -1.9958627991 2.4522759170 0.0380721286
H -1.2849409841 5.0160933370 -0.6486235355
H 2.1644204045 2.4835518229 0.1428155025
H 1.4471812312 5.0372897143 -0.5868469590
O 2.5935586194 -0.0222137662 0.3449502337
C 3.2818456036 0.2135066148 1.5377609087
C 4.6027904848 0.3568481485 1.2912406948
C 4.7838719316 0.2041273142 -0.1289528228
C 3.5625257656 -0.0235133354 -0.6609574008
H 2.6702461545 0.2291961610 2.4251312536
H 5.3731926155 0.5426883742 2.0268738580
H 3.2101500828 -0.2113378983 -1.6628785254
H 5.7171679909 0.2536768065 -0.6727593974
O 0.1160021493 -2.1169038323 0.0323122381
C 1.2254289265 -2.9629699051 0.2266355816
C 0.8420736966 -4.2435081591 0.0543872323
C -0.5639418767 -4.2376784639 -0.2672572953
C -0.9749655377 -2.9538212657 -0.2752508262
H 2.1483456019 -2.4642806577 0.4681853486
H 1.4815254680 -5.1114669969 0.1390757615
H -1.9065373924 -2.4465559228 -0.4607880042
H -1.1837032269 -5.0999142462 -0.4731579650
O -2.3832417224 -0.0138052509 -0.2352150910
C -3.0659810360 -0.0319635850 -1.4503830336
C -4.4004140365 -0.0252038475 -1.2314450048
C -4.5910655074 0.0004071355 0.1951607987
C -3.3616918980 0.0065015979 0.7581370461
H -2.4601147320 -0.0403285989 -2.3431905151
H -5.1716770357 -0.0362537290 -1.9893514989
H -2.9990177022 0.0159653943 1.7724778285
H -5.5346280664 0.0111223691 0.7229877159
C -0.6024625224 -0.1715801457 5.0770919261
C -0.6756265953 -1.3359181326 4.3113522053
C -0.4785506093 -1.2587690014 2.9387805498
N -0.2171881667 -0.0867939271 2.3038762388
C -0.1470581295 1.0412879734 3.0570786275
C -0.3320506532 1.0370542489 4.4330663685
H -0.7528916461 -0.2052516188 6.1518381927
H -0.8804300901 -2.2992710927 4.7654465710
H -0.5355651693 -2.1533685329 2.3318703247
H 0.0686526733 1.9593897702 2.5260025572
H -0.2650699447 1.9691847397 4.9837583763
