17
# extracted from Terachem optimization
Cr -0.0002085145 0.0002363952 -0.0574945192
C 0.0001755238 2.1655467647 -0.0349317221
O 0.0003793380 3.2870076660 -0.0380565067
C 2.1652684230 0.0001805195 -0.0350430850
O 3.2866995715 0.0001129300 -0.0378614357
C 0.0001710581 -2.1652560015 -0.0353667703
O 0.0003721543 -3.2866864590 -0.0384259654
C -2.1655369507 0.0001758249 -0.0352287688
O -3.2869807688 0.0001047044 -0.0386407756
C -0.0001401577 -0.0000414024 2.1711376215
O -0.0000899486 -0.0000771484 3.2926213959
C -0.0005227692 0.0007613903 -2.0967893168
N -0.0005161291 0.0007080639 -3.2563252242
C 0.0001019665 -0.0003487254 -4.6899919172
H -0.6127831774 -0.8441686519 -5.0346229576
H 1.0373295595 -0.1101837521 -5.0341943650
H -0.4237201343 0.9519278297 -5.0364307008
