63
# extracted from Terachem optimization
Cr 0.0010666695 -0.0036121177 0.0002930856
O 0.4065797328 2.0080694186 -0.3872850292
H 0.0115477979 2.5033462550 -1.1241778581
H 0.4524972066 2.6136757140 0.3718719001
O 1.9805666934 -0.4088297530 -0.3706475880
H 2.4410986700 0.0368379785 -1.1029126534
H 2.6150997690 -0.5152808671 0.3584805221
O -0.4046523319 -2.0152758241 0.3880280533
H -0.4518481551 -2.6204252504 -0.3714296867
H -0.0077214392 -2.5109000117 1.1236760158
O -1.9784579657 0.4016154268 0.3713454146
H -2.4387950814 -0.0441044559 1.1037061082
H -2.6132276218 0.5082023050 -0.3575584889
C 0.4048403879 0.1869032952 2.0209096456
N 0.6165971734 0.3123391743 3.1665535517
C 0.8653755217 0.4651555680 4.5216419962
C 1.1215434675 1.7447549926 5.0407148753
C 1.3686061363 1.8794356164 6.3978680185
C 1.3744630561 0.7721645169 7.2727796673
C 1.6585032000 0.9800468189 8.7669022825
C 3.0578216260 1.6250929180 8.9280875343
C 0.5813589929 1.9256108835 9.3555571902
C 1.6329599770 -0.3425069536 9.5566380792
C 1.1126731359 -0.4925504838 6.7156195411
C 0.8584093668 -0.6581450633 5.3585984614
H 1.1234388842 2.6109409771 4.3867035120
H 1.5628252356 2.8729172935 6.7870949406
H 3.8432299315 0.9774435396 8.5232023881
H 3.2685343371 1.7857571038 9.9904904947
H 3.1251007048 2.5964616383 8.4275355030
H -0.4217850182 1.4969178334 9.2552874908
H 0.5818361206 2.9073518789 8.8706056238
H 0.7752528551 2.0852053554 10.4213465843
H 0.6533841820 -0.8315313332 9.5085738317
H 1.8412114752 -0.1391080142 10.6112458813
H 2.3948922726 -1.0473335739 9.2049397423
H 1.1053214258 -1.3722219376 7.3470047313
H 0.6580261969 -1.6438842386 4.9506662928
C -0.4029853642 -0.1935377690 -2.0204890916
N -0.6151599801 -0.3177238870 -3.1661868850
C -0.8644021412 -0.4683203151 -4.5214558215
C -1.1155533402 -1.7476786977 -5.0434533515
C -1.3633389416 -1.8801010327 -6.4007229686
C -1.3748944025 -0.7706796575 -7.2728695040
C -1.6600197034 -0.9759108264 -8.7671678099
C -0.5815796180 -1.9177693014 -9.3593110076
C -3.0581564687 -1.6236389278 -8.9279762049
C -1.6383639131 0.3484595747 -9.5539620665
C -1.1180088323 0.4937800248 -6.7128338114
C -0.8630658069 0.6570517738 -5.3556531111
H -1.1130156984 -2.6154685347 -4.3915929922
H -1.5536552857 -2.8734350315 -6.7922454178
H 0.4207843908 -1.4872659870 -9.2590383421
H -0.7762937456 -2.0750707061 -10.4252874223
H -0.5795383984 -2.9007256995 -8.8768745201
H -3.8444543729 -0.9784438353 -8.5208932103
H -3.1227768436 -2.5961008445 -8.4291682415
H -3.2697942259 -1.7827098648 -9.9904372071
H -2.4019054281 1.0505678522 -9.2003108381
H -1.8467627791 0.1469333427 -10.6089054862
H -0.6600074629 0.8398668194 -9.5053893897
H -1.1151549850 1.3750686243 -7.3419980891
H -0.6665862715 1.6426358229 -4.9454574788
