22
# extracted from Terachem optimization
Cr 0.1107394135 0.1253963035 -0.0893644679
O 0.4463786750 2.2474885789 -0.2174555257
H 1.1347394056 2.6555501384 -0.7712455693
H -0.3454591583 2.8069409623 -0.3109124049
O 2.1623585633 -0.2880474706 -0.2562395332
H 2.6407504307 -0.4032220744 -1.0950517797
H 2.8328088211 -0.1313024350 0.4315376240
O -0.1320327737 -1.9421843644 0.4797283077
H 0.5179163442 -2.6034331367 0.1839629172
H -0.9947547996 -2.3923233487 0.4953961080
O -1.9021452927 0.5416561991 0.2451152595
H -2.2042686730 0.6346674753 1.1655891692
H -2.6809041813 0.4449683790 -0.3279710171
O 0.2410756511 0.4703867183 2.0147059773
H 0.6237793258 1.2868932447 2.3796078068
H 0.4295275766 -0.2529548312 2.6372861128
C -0.1755317012 -0.1931506015 -2.1327446435
N -0.3430431182 -0.3793353109 -3.2687684835
C -0.5512467740 -0.6132555436 -4.6679651364
H -1.2679042510 -1.4296451112 -4.7877346211
H 0.4015067849 -0.8828498257 -5.1303875994
H -0.9442852156 0.2977613043 -5.1260851494
