54
# extracted from Terachem optimization
Cr -0.0004494727 -0.0209401002 -0.0151757781
O -0.1907945987 -0.0146923835 2.5413185237
H 0.5947371035 -0.0482278341 3.1107771671
H -0.9469389444 0.0340397437 3.1495389586
C 0.1378284597 -0.0391486065 -2.6885037209
N 0.1424217704 -0.0679374168 -3.8555843874
C 0.1390471087 -0.0996146566 -5.2862378251
H -0.4281516912 -0.9696061639 -5.6254325410
H 1.1672063159 -0.1665443032 -5.6498178289
H -0.3279242773 0.8126004273 -5.6655951881
C -0.0519475600 4.9648121413 -0.0355196617
C 0.4517084477 4.2674361747 1.0636107725
C 0.4377742433 2.8773332810 1.0409665975
N -0.0397344613 2.1650743443 -0.0037182116
C -0.5316737462 2.8491895513 -1.0593282298
C -0.5550175273 4.2381846867 -1.1152371087
H -0.0542401191 6.0503314175 -0.0500289855
H 0.8498657059 4.7885428561 1.9278672178
H 0.8074267938 2.3019053310 1.8812579638
H -0.9112187690 2.2513150084 -1.8804529799
H -0.9603068587 4.7351981939 -1.9901752031
C 4.9450973647 0.0865461021 0.4867112349
C 4.1827173067 -0.8434459541 1.1955234824
C 2.8031758877 -0.8502022236 1.0239390008
N 2.1606577951 0.0110814176 0.2042699330
C 2.9072900966 0.9040731390 -0.4807091670
C 4.2915909028 0.9732153566 -0.3696386509
H 6.0249845053 0.1175287328 0.5972422272
H 4.6459006654 -1.5579690391 1.8677387026
H 2.1824766355 -1.5727827035 1.5434398021
H 2.3653157984 1.5782778259 -1.1344747662
H 4.8414425476 1.7104679026 -0.9447369679
C 0.0516486566 -4.9938658136 0.0089905365
C -0.5801809366 -4.2845103792 1.0314409897
C -0.5691986439 -2.8945212124 0.9911947706
N 0.0296403742 -2.1943683715 0.0023565281
C 0.6423038002 -2.8895557312 -0.9807691280
C 0.6731042215 -4.2792919131 -1.0161562806
H 0.0638865887 -6.0795073663 0.0130849473
H -1.0737427356 -4.7954490896 1.8517118263
H -1.0390038127 -2.3103832759 1.7732389083
H 1.1179074757 -2.3009656635 -1.7574546438
H 1.1784447716 -4.7859532442 -1.8317696734
C -4.9713278841 0.0654578479 -0.1915058381
C -4.2507110612 -0.8246632408 -0.9885468617
C -2.8626796225 -0.8361800582 -0.8984068664
N -2.1749215753 -0.0158783124 -0.0755216653
C -2.8817290781 0.8410418301 0.6941717593
C -4.2699630275 0.9109801057 0.6695859514
H -6.0555849769 0.0998758150 -0.2402373158
H -4.7516702874 -1.5015656914 -1.6724574431
H -2.2704364347 -1.5187798117 -1.4979448142
H -2.3027377864 1.4965435795 1.3358308067
H -4.7868144833 1.6190236273 1.3090641513
