71
# extracted from Terachem optimization
Cr -0.0160719466 -0.0129758025 -0.0273572132
C 0.5710059399 4.8255747836 -0.7235650143
C 1.4138237843 4.1161191028 0.1383348271
C 1.2229939832 2.7445210113 0.3028332347
N 0.2417892180 2.0695685297 -0.3394208156
C -0.5764955525 2.7577227885 -1.1722197449
C -0.4357087249 4.1242849988 -1.3851988206
H 0.7034031288 5.8934487285 -0.8679167069
Cl 2.6862331449 4.9017344807 1.0010420033
H 1.8760302967 2.1811495136 0.9573918209
H -1.3592728947 2.1954369281 -1.6659501517
H -1.1128634948 4.6346816305 -2.0622311389
C 4.8024252653 -0.7182627939 -0.7578953582
C 4.0530805063 0.0960809896 -1.6132679806
C 2.6911535374 0.2688603915 -1.3695885954
N 2.0611083251 -0.3253080980 -0.3306911466
C 2.7874883950 -1.1134565343 0.4978554158
C 4.1484888070 -1.3270391480 0.3119393422
H 5.8644525456 -0.8658727357 -0.9280643479
Cl 4.7787099402 0.8913608065 -2.9629094216
H 2.0994529406 0.9017151399 -2.0185522647
H 2.2606114758 -1.5764610881 1.3225622754
H 4.6910620691 -1.9641971639 1.0025838913
C -0.6911674979 -4.8249310540 0.7844035853
C -1.2539685402 -3.8653335869 1.6322859108
C -1.0435790117 -2.5124129288 1.3666365917
N -0.3052209850 -2.0888172000 0.3152275326
C 0.2421401305 -3.0190467143 -0.5046322937
C 0.0664381229 -4.3825982823 -0.2987137943
H -0.8441484010 -5.8833430997 0.9717902307
Cl -2.2025449307 -4.3199786242 3.0015105386
H -1.4791176517 -1.7593978532 2.0112773609
H 0.8334151406 -2.6552925032 -1.3356013646
H 0.5220581576 -5.0916655209 -0.9821936104
C -4.8331384264 0.7479846782 0.6942971338
C -3.8743440273 1.5210535810 1.3568948926
C -2.5213554331 1.2741155052 1.1255666982
N -2.0962164121 0.3069516058 0.2808003619
C -3.0258982974 -0.4399900064 -0.3618581989
C -4.3898697982 -0.2448683431 -0.1778929537
H -5.8918461056 0.9226839134 0.8594119713
Cl -4.3298620580 2.7732426760 2.4539262815
H -1.7688880343 1.8686579045 1.6273788211
H -2.6613049497 -1.2086678620 -1.0316636994
H -5.0987152502 -0.8670608784 -0.7142760341
C 0.3337461610 0.2622153857 2.0488459386
N 0.5233664715 0.4011221920 3.1911266303
C 0.7452628702 0.5578890300 4.5513631795
C 0.6815858684 -0.5739103116 5.3832338717
C 0.9036501341 -0.4066877839 6.7449245407
C 1.1831964096 0.8642814846 7.2620615868
C 1.2430784880 1.9812311954 6.4197915094
C 1.0246159968 1.8408003445 5.0542781347
H 0.4626440498 -1.5513195811 4.9660218980
H 0.8588501096 -1.2662667217 7.4055850315
H 1.4599817291 2.9620886504 6.8298826469
H 1.0672974152 2.6966015720 4.3886431403
H 1.3552657810 0.9846807742 8.3270819257
C -0.3487117581 -0.3074337048 -2.1043879471
N -0.5123804982 -0.4638284842 -3.2484583101
C -0.7027616117 -0.6446851526 -4.6106772016
C -0.1499312939 0.2901126398 -5.5037066044
C -0.3464573494 0.0989261642 -6.8663336107
C -1.0795095498 -1.0023757413 -7.3248886452
C -1.6230633160 -1.9246684744 -6.4223020435
C -1.4405705664 -1.7559883957 -5.0546831215
H 0.4163740844 1.1376367694 -5.1318158756
H 0.0716941223 0.8078459368 -7.5734070007
H -2.1893601566 -2.7751886948 -6.7873460405
H -1.8540843907 -2.4621882184 -4.3421514542
H -1.2275431120 -1.1429718038 -8.3910341999
