46
# extracted from Terachem optimization
Cr -0.0473643167 0.0921410074 -0.0869123917
O -0.2128674115 0.4149717742 1.9833484134
H -0.4103871337 1.2904996245 2.3586592568
H -0.4587483546 -0.2664252927 2.6321353202
C 0.1989189866 -0.2182520622 -2.2043136518
N 0.3390133649 -0.3918557711 -3.3422643704
C 0.5150344998 -0.6107806346 -4.7472848296
H -0.2654835974 -1.2897905625 -5.0990345029
H 1.4989093680 -1.0562283566 -4.9135618887
H 0.4430889190 0.3481674341 -5.2661894103
O -0.0328589535 2.1918588305 -0.3011574852
C -1.1091899376 3.0131895730 -0.6895415747
C -0.6732274090 4.2808005297 -0.8274617946
C 0.7362740359 4.2918590496 -0.5212933310
C 1.0962441072 3.0305321757 -0.2127726651
H -2.0576326045 2.5120917891 -0.7865937758
H -1.2795050201 5.1303615533 -1.1107581444
H 2.0109699108 2.5438957961 0.0808960947
H 1.3920454371 5.1515737467 -0.5298609224
O 2.4286373843 0.1034442001 0.2994821470
C 3.0818563594 0.1944919805 1.5265653689
C 4.4198859823 0.2343210867 1.3334775350
C 4.6417151575 0.1702805873 -0.0876318162
C 3.4246221112 0.0925775466 -0.6725071425
H 2.4459723837 0.2209023170 2.3961238605
H 5.1736852405 0.2998097638 2.1058129260
H 3.0863474534 0.0236189594 -1.6936794958
H 5.5961296974 0.1827536524 -0.5955813285
O -0.0499221354 -1.9872008364 0.2791914945
C 1.0734646879 -2.8172830328 0.4715849344
C 0.6756780650 -4.1044886948 0.4921807467
C -0.7537750755 -4.1225801910 0.3017193434
C -1.1628047298 -2.8452073292 0.1726059696
H 2.0154900616 -2.3061512829 0.5724429634
H 1.3203864353 -4.9613810495 0.6339341376
H -2.1103065754 -2.3597411712 0.0098486389
H -1.3914700835 -4.9954376066 0.2717785177
O -2.5744083632 0.0897451799 -0.1464381362
C -3.3212418927 -0.2042612636 -1.2880150980
C -4.6188877647 -0.3969400092 -0.9601061541
C -4.7219756646 -0.2135165090 0.4637446474
C -3.4808077851 0.0788402651 0.9125309069
H -2.7656980498 -0.2237040100 -2.2119177618
H -5.4226388359 -0.6340945792 -1.6431360857
H -3.0756988309 0.3090397649 1.8848894136
H -5.6181439422 -0.2873863268 1.0645650000
