47
# extracted from Terachem optimization
Cr 0.0022012782 0.0013942675 -0.0050125071
C -0.0116862341 2.0713095891 -0.0059058231
N -0.0106972996 3.2359876107 -0.0047174641
C -0.0014362413 4.6648311677 -0.0018629035
H 0.8342907150 5.0223280283 -0.6084504824
H 0.1141713596 5.0187018082 1.0256912880
H -0.9425844848 5.0362690730 -0.4145468899
C 2.0757424311 0.0206065357 0.0132951060
N 3.2424445887 0.0212507126 0.0151354365
C 4.6723217300 0.0115757774 0.0124870145
H 5.0273388744 -0.8251112440 -0.5946048076
H 5.0305646427 -0.1065109303 1.0382652535
H 5.0426148071 0.9540557630 -0.3982298864
C 0.0149073784 -2.0682420877 -0.0034161781
N 0.0123587791 -3.2328447063 -0.0024473298
C 0.0012855328 -4.6616427270 -0.0013135051
H -0.8348332975 -5.0171972433 -0.6085121496
H -0.1148277034 -5.0165609021 1.0258155004
H 0.9421911307 -5.0334702268 -0.4142464497
C -2.0719542790 -0.0186601383 -0.0215600224
N -3.2386626286 -0.0200023091 -0.0206403998
C -4.6685691613 -0.0121403566 -0.0154353878
H -5.0264324740 0.9806310267 0.2688712511
H -5.0320811967 -0.7573478609 0.6965525887
H -5.0310129507 -0.2602479995 -1.0161741961
C -0.0445615062 0.0098929030 5.0329468002
C 1.1556341924 -0.0356073436 4.3259450780
C 1.1225485226 -0.0392388480 2.9367939164
N -0.0202088225 0.0029130684 2.2130376781
C -1.1759205706 0.0486411897 2.9163028317
C -1.2323189480 0.0515928440 4.3049199936
H -0.0541808167 0.0155522423 6.1186574100
H 2.1118519671 -0.0651069924 4.8373085742
H 2.0435758684 -0.0747531808 2.3740826079
H -2.0884579470 0.0877136131 2.3400764656
H -2.1971462150 0.0885383590 4.7996199308
C 0.0557740930 0.0015187331 -5.0402118036
C -1.1436878818 0.0808600648 -4.3348987719
C -1.1127022502 0.0810305037 -2.9456336359
N 0.0270045907 -0.0010742000 -2.2205954186
C 1.1819105645 -0.0807829747 -2.9221076766
C 1.2405615250 -0.0787501555 -4.3105996152
H 0.0674538508 0.0051074814 -6.1259380016
H -2.0972747974 0.1460482723 -4.8478364417
H -2.0323523310 0.1519159727 -2.3837891972
H 2.0921538126 -0.1466650464 -2.3446214611
H 2.2050328355 -0.1378151313 -4.8038333423
