34
# extracted from Terachem optimization
Cr 0.0000337394 0.0001558853 -0.0372016294
C -0.0005315386 2.0686794506 -0.0444680584
N -0.0008401388 3.2324356667 -0.0292662334
C -0.0004693354 4.6620016494 -0.0056067511
H 0.8365869989 5.0324407622 -0.6024265921
H 0.1080552776 4.9998336369 1.0281217199
H -0.9431204858 5.0315465038 -0.4164737067
C 2.0624032602 0.0004906617 -0.0123472622
N 3.2269476978 0.0005129576 -0.0030615562
C 4.6568141541 0.0003661230 -0.0030651148
H 5.0166233377 -0.8368222886 -0.6059797842
H 5.0134084426 -0.1087228235 1.0242340541
H 5.0188580347 0.9433655331 -0.4195238103
C 0.0007150916 -2.0690214902 -0.0430881003
N 0.0008904708 -3.2328099507 -0.0279172701
C 0.0005314120 -4.6623806181 -0.0053024331
H -0.8364060964 -5.0324595096 -0.6024900701
H -0.1080049886 -5.0010645230 1.0281214904
H 0.9431807428 -5.0316226168 -0.4164105648
C -2.0622549350 -0.0003123354 -0.0131257465
N -3.2266663784 -0.0001548607 -0.0029695460
C -4.6565070924 0.0012671214 0.0007826748
H -5.0180327012 0.9908761799 0.2899500433
H -5.0158836031 -0.7481850996 0.7101614804
H -5.0140965469 -0.2437688463 -1.0024464144
O -0.0008351966 -0.0009944826 2.0970801590
H 0.7817918555 0.0321879125 2.6714514034
H -0.7838154638 -0.0307108785 2.6712016687
C -0.0000996104 0.0023112899 -2.1291021396
N -0.0002879499 0.0019361027 -3.2904769241
C 0.0002060568 0.0000853016 -4.7214901682
H -0.6064762553 -0.8362776782 -5.0776851555
H 1.0275478363 -0.1081650893 -5.0781199262
H -0.4202621225 0.9429833599 -5.0800547346
