30
# extracted from Terachem optimization
Cr -0.0069300242 0.0023182690 0.1126169377
O -0.3795612456 2.0027237669 0.0379438358
H 0.3748770085 2.6274351853 0.0476862405
H -1.0781235438 2.4006794195 -0.5199423113
O 1.9673967834 0.4191629175 0.1932168823
H 2.6075501818 0.4580918068 -0.5465892532
H 2.4771772525 0.4083739488 1.0290265088
O 0.3785683667 -2.0042596841 0.0570385713
H 0.9911579081 -2.4141956346 -0.5867939630
H -0.3565497340 -2.6378092351 0.1894829990
O -1.9927466081 -0.3723523089 0.0763743810
H -2.5745529494 -0.3548965348 0.8639015906
H -2.5602225214 -0.5043074721 -0.7096734623
C 0.0569193856 -0.0153028229 -2.0743310785
N 0.0749607749 -0.0280011809 -3.2331241822
C 0.0961295478 -0.0456059827 -4.6740756015
H -0.5201439842 -0.8801561749 -5.0214343871
H 1.1315391651 -0.1746295535 -5.0031579483
H -0.3044710811 0.9039476376 -5.0405803420
C -0.0319936262 0.0312406440 4.9419487283
C -0.6648490024 1.0495986749 4.2214126055
C -0.6468012515 1.0132359781 2.8351332979
N -0.0431634109 0.0016094309 2.1454592390
C 0.5664312377 -0.9965904655 2.8513358872
C 0.5935876738 -1.0043587903 4.2382171079
H -0.0249489641 0.0442547125 6.0285871480
H -1.1606053954 1.8740172159 4.7243104548
H -1.1005040164 1.8051533193 2.2536920631
H 1.0280024394 -1.7923419376 2.2794535281
H 1.0996844837 -1.8144590226 4.7549606327
