57
# extracted from Terachem optimization
Cr 0.0233663988 0.0091466324 0.0124219167
O 0.1412891695 -0.0014662908 2.5016987089
H 0.9206589304 0.0723654753 3.0789481917
H -0.6242416596 0.0056395045 3.1006242261
O 0.0442070080 0.0120047085 -2.5476337379
C 1.1907231441 -0.1383450612 -3.3181307774
C 0.8628422437 -0.2434126538 -4.6271581307
C -0.5715245797 -0.1614101650 -4.7040550671
C -1.0233076957 -0.0106791581 -3.4367623845
H 2.1177344593 -0.1487053075 -2.7677764921
H 1.5519333451 -0.3651726546 -5.4513244271
H -2.0015629267 0.0823813118 -2.9925728294
H -1.1778112937 -0.2098891146 -5.5979165365
C -0.0582194375 5.0489637527 -0.0168159474
C -0.0776858260 4.3304239104 1.1782333827
C -0.0395797703 2.9405717593 1.1314329926
N 0.0170885184 2.2406361607 -0.0242798475
C 0.0401113703 2.9509338201 -1.1791722573
C 0.0035874202 4.3400539460 -1.2173721534
H -0.0901559351 6.1342213136 -0.0132042719
H -0.1221257277 4.8336387543 2.1385077133
H -0.0489056909 2.3516258422 2.0395631655
H 0.0924530853 2.3760180121 -2.0950927007
H 0.0246513657 4.8500766957 -2.1745254053
C 5.0339178074 -0.0306819512 0.1380542147
C 4.3009209400 -1.1489742790 0.5342795719
C 2.9123871013 -1.0946812893 0.4934087767
N 2.2236672758 -0.0013060176 0.0925880989
C 2.9478559483 1.0810596991 -0.2782804934
C 4.3378300633 1.1055841738 -0.2744047667
H 6.1195298959 -0.0447866234 0.1482919631
H 4.7922788772 -2.0576971990 0.8653133064
H 2.3208700393 -1.9537235298 0.7793006423
H 2.3804788676 1.9474760967 -0.5903553723
H 4.8591796150 2.0021494558 -0.5926328445
C -0.2430737832 -5.0083604211 -0.0482815897
C -0.0288187390 -4.3207788259 1.1477960216
C 0.0502171145 -2.9341155597 1.1202621312
N -0.0730853760 -2.2038093789 -0.0159180141
C -0.2789234169 -2.8825222392 -1.1669435009
C -0.3693614235 -4.2705465292 -1.2237031573
H -0.3080881828 -6.0920292420 -0.0610388531
H 0.0777084904 -4.8464620883 2.0910769099
H 0.2167180988 -2.3666305821 2.0283814260
H -0.3760023445 -2.2921682774 -2.0679501298
H -0.5340135986 -4.7556674275 -2.1798570929
C -4.9702681818 0.0959421883 0.3081908181
C -4.2367058373 -0.9332506484 0.8976572950
C -2.8506346329 -0.9197598003 0.7911593816
N -2.1669122226 0.0530621868 0.1466893517
C -2.8893276888 1.0511187096 -0.4121069122
C -4.2777451398 1.1063757683 -0.3592368323
H -6.0542426392 0.1105040887 0.3674098351
H -4.7256890713 -1.7422914619 1.4296227176
H -2.2600232070 -1.7177762705 1.2236307814
H -2.3261049608 1.8279712509 -0.9145064161
H -4.8007478445 1.9305672563 -0.8326483539
