25
# extracted from Terachem optimization
Cr -0.0046023373 0.0007805255 -0.0047795620
N -0.2375658746 2.1041939916 0.3684547745
H -1.1872636998 2.3658898043 0.6616332038
H 0.3676503194 2.4803185413 1.1093292003
H -0.0566048605 2.7067718033 -0.4440540201
N 2.1100322336 0.2542824493 -0.2750096019
H 2.4113515363 1.2366820420 -0.2535475850
H 2.7070641062 -0.2119957572 0.4202003004
H 2.4539506585 -0.0922206107 -1.1796723104
N 0.2303534068 -2.1161265318 -0.2958794525
H 1.2110205668 -2.4238218927 -0.2911553869
H -0.2249510453 -2.7023268806 0.4155254493
H -0.1400814922 -2.4734875406 -1.1857347630
N -2.1169687454 -0.3309205303 0.2030175165
H -2.4643358071 -1.1470945652 -0.3169050346
H -2.4145454044 -0.5045700890 1.1712098892
H -2.7179146047 0.4421170635 -0.1104928144
N 0.2734070187 -0.2400530172 2.1137028103
H -0.4465651694 0.2069945471 2.6957415901
H 0.2889442630 -1.2178267223 2.4294218473
H 1.1567681328 0.1489424174 2.4671889952
N -0.2557721203 0.3294824556 -2.1137653196
H -1.2358896020 0.4832644213 -2.3810982431
H 0.2415652083 1.1471840183 -2.4892739290
H 0.0509551969 -0.4465005993 -2.7140242272
