29
# extracted from Terachem optimization
Cr -0.0003676037 0.0023813135 0.0001891678
N -0.2897899102 2.4700922271 0.4085511729
H -1.2642360963 2.7285913276 0.5786924366
H 0.2195066772 2.8364101826 1.2157594610
H -0.0049070438 3.0547051976 -0.3802233961
N 2.1372887680 0.2772884002 -0.2933511074
H 2.3797717029 1.2698739195 -0.3262946366
H 2.7105441585 -0.1258727452 0.4507669070
H 2.4839853649 -0.1216362499 -1.1683541754
N 0.2901569011 -2.4658806161 -0.4069843779
H 1.2659515956 -2.7248699072 -0.5684189881
H -0.0024819124 -3.0514770831 0.3782164672
H -0.2118475544 -2.8306666288 -1.2194442488
N -2.1380633070 -0.2719352788 0.2929702446
H -2.3816372529 -1.2644509620 0.3199246193
H -2.4836030357 0.1218333392 1.1707636012
H -2.7114388949 0.1365301963 -0.4481714008
C 0.3327199159 -0.3303496906 2.1962517515
N 0.5042210944 -0.5019044359 3.3333749813
C 0.7160132051 -0.7133087598 4.7353339801
H 1.4712658037 -1.4917934767 4.8676490313
H -0.2252252148 -1.0264735793 5.1936139468
H 1.0586326730 0.2200646014 5.1885046661
C -0.3331732756 0.3314546410 -2.1964482544
N -0.5047303866 0.4992080907 -3.3341262473
C -0.7164750678 0.7051625923 -4.7368460517
H -1.3547556367 -0.0940075089 -5.1214382578
H 0.2490819473 0.6887442875 -5.2481806907
H -1.2002009899 1.6735574685 -4.8858087039
