54
# extracted from Terachem optimization
Cr -0.0415859369 -0.0478780953 -0.1174988548
C 0.0911987879 4.8086403408 0.9404825402
C 0.9777857965 4.2514824421 0.0186640228
C 0.8919034997 2.8919352286 -0.2625456313
N -0.0124837003 2.0738754651 0.3194511331
C -0.8707738160 2.6268749724 1.2060292495
C -0.8526953576 3.9759373527 1.5428963288
H 0.1339873917 5.8657037675 1.1838325950
H 1.7267962400 4.8569167417 -0.4810224570
H 1.5653256953 2.4285892518 -0.9750969470
H -1.6036231180 1.9575481883 1.6449439137
H -1.5678079928 4.3604235421 2.2627341568
C 4.9545249522 -0.1636826048 -0.0361954153
C 4.2507329533 -0.7133965631 -1.1084802043
C 2.8610973275 -0.6576982666 -1.1023008554
N 2.1516429813 -0.0975729865 -0.0983540069
C 2.8436936589 0.4284454062 0.9361542541
C 4.2319942348 0.4168112846 1.0074392183
H 6.0399891015 -0.1880660414 -0.0134512726
H 4.7663816996 -1.1787057583 -1.9418542687
H 2.2841404009 -1.0772739419 -1.9186132868
H 2.2535863936 0.8772152998 1.7273840758
H 4.7306493513 0.8586299449 1.8636955665
C -0.0805645101 -4.9954937912 -0.6353809525
C 0.8617960483 -4.3713739837 0.1828144543
C 0.8443066240 -2.9854939082 0.2887722667
N -0.0437768795 -2.2024757702 -0.3623424214
C -0.9500784053 -2.8184168159 -1.1523474290
C -1.0025065198 -4.1989318047 -1.3145596842
H -0.0929036308 -6.0759481404 -0.7420476018
H 1.6033582239 -4.9450074456 0.7288922693
H 1.5798481536 -2.4709213986 0.8987519553
H -1.6541249101 -2.1732130926 -1.6651378010
H -1.7543555237 -4.6354436884 -1.9633761080
C -5.0094878445 0.0053761789 0.1222451912
C -4.2561563369 -0.8019461830 0.9750334543
C -2.8695231705 -0.7805155369 0.8709016327
N -2.2110140573 -0.0092807593 -0.0226743682
C -2.9499734497 0.7731116589 -0.8407604118
C -4.3389110373 0.8087825248 -0.8009669105
H -6.0937609934 0.0107657081 0.1778197582
H -4.7299868017 -1.4388598428 1.7143930288
H -2.2519378586 -1.3855142819 1.5234102362
H -2.3984384861 1.3910610204 -1.5402796234
H -4.8798529903 1.4565585834 -1.4823518383
O -0.0209841429 -0.4041702812 2.0347595143
H -0.0502652654 0.3384439392 2.6605035825
H 0.4572057731 -1.1282402470 2.4702607153
C -0.0627685936 0.2652905612 -2.1257558936
N -0.0586700548 0.4369523470 -3.2815852242
C -0.0545803286 0.6456797692 -4.6953454609
H -0.9272410383 0.1540720841 -5.1330774044
H 0.8558849405 0.2201599025 -5.1251327496
H -0.0944518619 1.7173210416 -4.9066088490
