59
# extracted from Terachem optimization
Cr 0.0203707309 -0.0037173104 -0.0024944478
O 0.0237338753 2.0663756614 -0.0176238884
C -1.1089971430 2.9271622354 0.0550659216
C -0.6923595816 4.2046848524 -0.0146122126
C 0.7466289575 4.1984639005 -0.1379574091
C 1.1587445193 2.9177144139 -0.1404281502
H -2.0599780206 2.4339142733 0.1578999303
H -1.3312741752 5.0782563410 0.0177589855
H 2.1085199965 2.4176188666 -0.2140780675
H 1.3894014394 5.0659770924 -0.2162502635
O 2.1078543727 -0.0020803613 0.0540987238
C 2.9231848410 -0.1860824501 1.2097205096
C 4.2182589393 -0.1205686838 0.8518529405
C 4.2748470838 0.1195672213 -0.5712654141
C 3.0130921487 0.1847312681 -1.0320333130
H 2.3915454163 -0.3486488769 2.1296137776
H 5.0631499855 -0.2282746804 1.5207724736
H 2.5554010375 0.3493604947 -1.9908355629
H 5.1701285407 0.2282430722 -1.1701378675
O 0.0290378446 -2.0697207857 0.0134448988
C 1.1568016751 -2.9144625943 0.2173640258
C 0.7487248092 -4.1967703791 0.2122501519
C -0.6802252848 -4.2097458287 0.0009193533
C -1.0942789793 -2.9345905334 -0.1150121828
H 2.0987544323 -2.4095276313 0.3418283836
H 1.3882511852 -5.0606556471 0.3429325490
H -2.0364697034 -2.4451921453 -0.2892794841
H -1.3143750668 -5.0852300482 -0.0590831913
O -2.0763949506 -0.0077775386 -0.0566389485
C -2.9816105552 0.2429393562 1.0160052654
C -4.2437393961 0.1685568975 0.5574050122
C -4.1869531113 -0.1441575375 -0.8513201242
C -2.8919636360 -0.2413675672 -1.2023703038
H -2.5251239639 0.4435690598 1.9681421409
H -5.1382335776 0.3145652901 1.1498500435
H -2.3624354786 -0.4582593090 -2.1122711261
H -5.0311057394 -0.2794566311 -1.5157026771
C -0.2273644400 0.0719524418 4.8971008447
C -0.4906114329 -1.1043111384 4.1894755633
C -0.4020646612 -1.0982870369 2.8039794688
N -0.0649810211 0.0172897297 2.0999555160
C 0.1953269223 1.1592249163 2.7957435224
C 0.1230962148 1.2196676458 4.1803253530
H -0.2925741424 0.0935678421 5.9813437912
H -0.7650346509 -2.0219873213 4.6997893669
H -0.6126422743 -1.9913494657 2.2327946179
H 0.4768988683 2.0303239843 2.2215756745
H 0.3404081617 2.1571372298 4.6823619908
C 0.0806347937 -0.0663544065 -4.9091069547
C -0.2414601557 1.1010343882 -4.2118072964
C -0.2325500922 1.0877864761 -2.8238846097
N 0.0800453721 -0.0268981188 -2.1066925040
C 0.3960101333 -1.1610303906 -2.7916521849
C 0.4059479785 -1.2126500588 -4.1788423095
H 0.0769426870 -0.0827461424 -5.9953716200
H -0.5019112780 2.0164090029 -4.7327949174
H -0.4931178391 1.9729897707 -2.2607001009
H 0.6508374165 -2.0341538206 -2.2077051895
H 0.6640418813 -2.1433029414 -4.6734831358
