17
# extracted from Terachem optimization
Cr -0.0000606911 0.0000045244 -0.0224179314
C 0.0001089400 2.4288798006 0.0248911184
O 0.0000270719 3.5546330358 -0.0121334612
C 2.4289725785 0.0000364340 0.0249709759
O 3.5546790947 0.0000094596 -0.0121297163
C 0.0001079525 -2.4288978556 0.0248264401
O 0.0000262823 -3.5546330869 -0.0121387448
C -2.4290257465 0.0000350280 0.0247993407
O -3.5546981849 0.0000088981 -0.0121591974
C -0.0000276717 -0.0000109893 2.2088351988
O 0.0000008166 -0.0000002645 3.3333780816
C -0.0001394068 0.0002191538 -2.1319159992
N -0.0003030746 0.0003923088 -3.2895499469
C 0.0000090237 -0.0000143838 -4.7248957641
H -0.6080809496 -0.8393232673 -5.0731892161
H 1.0309646812 -0.1074295067 -5.0728370019
H -0.4225617123 0.9460907156 -5.0739791634
