41
# extracted from Terachem optimization
Cr -0.0050472856 0.0008570388 -0.0274269190
C 1.2100674602 3.0368241015 0.2874484095
N -0.0217115301 2.1948046318 0.2995371205
H -0.6602855732 2.5705745470 -0.4032710456
H -0.5010190606 2.3485644008 1.1893782278
H 1.7333633732 2.8935641681 -0.6605740790
H 1.8618855686 2.7426272019 1.1125985455
H 0.9746183005 4.0988880001 0.4000494045
C 2.9944526644 -1.2705538557 0.3948297018
N 2.1877385989 -0.0187369395 0.3094987990
H 2.5896662698 0.5668373719 -0.4253253634
H 2.3425805152 0.5066169456 1.1715885776
H 2.8912717232 -1.8336326249 -0.5350568907
H 2.6369424530 -1.8750084067 1.2322856953
H 4.0554729086 -1.0579093153 0.5538396901
C -1.2201289608 -3.0351947002 -0.3418677650
N 0.0116021787 -2.1931146439 -0.3544313500
H 0.4905178291 -2.3467649763 -1.2445054783
H 0.6505025084 -2.5689188860 0.3480574650
H -1.8718886143 -2.7415575786 -1.1672642493
H -1.7434793777 -2.8913740151 0.6060418636
H -0.9846182270 -4.0973198791 -0.4537474252
C -3.0047347686 1.2721627689 -0.4485700080
N -2.1978799537 0.0203693914 -0.3641456613
H -2.3528770120 -0.5045648650 -1.2264611261
H -2.5995333117 -0.5656342057 0.3704804022
H -2.6476108025 1.8770389432 -1.2858864833
H -2.9012405386 1.8347776301 0.4815593037
H -4.0657992060 1.0595043989 -0.6072677786
C -0.4073682657 -0.3920858041 2.5107046389
N -0.5677666576 -0.5713954313 3.6516036628
C -0.7657675541 -0.7898043425 5.0536178315
H -0.3198388689 -1.7470334204 5.3342378710
H -1.8373746109 -0.8043657504 5.2666405666
H -0.2888083762 0.0184354727 5.6132444574
C 0.3983786764 0.3918417536 -2.5654115771
N 0.5600362239 0.5693566640 -3.7064088705
C 0.7597200710 0.7850357620 -5.1085406270
H 0.0922955091 0.1277410722 -5.6710336254
H 1.7988309662 0.5611018958 -5.3617040126
H 0.5383366692 1.8282256124 -5.3467058005
