42
# extracted from Terachem optimization
Cr -0.0169831341 0.0035448374 0.2036100219
C -0.0190128171 2.0584050201 0.1548634519
N -0.0130071263 3.2227528920 0.1162183913
C 0.0021933699 4.6504488372 0.0673290505
H 0.8327481638 4.9818371928 -0.5609898779
H 0.1312046429 5.0412605166 1.0796885842
H -0.9421462572 5.0113289247 -0.3475319510
C 2.0343161324 0.0067630927 0.0308290586
N 3.1899272922 0.0050180419 -0.1235762947
C 4.6071672644 0.0031187907 -0.3061365895
H 4.8852183782 -0.8165459556 -0.9731393979
H 5.0919199044 -0.1360178095 0.6635723768
H 4.9196077942 0.9568394429 -0.7381517097
C -0.0085735444 -2.0526854545 0.1838655286
N -0.0047855269 -3.2170486290 0.1450197828
C -0.0009901654 -4.6444056910 0.0845425752
H -0.8277813455 -4.9817122512 -0.5456408494
H -0.1229294815 -5.0464322454 1.0933127651
H 0.9478186974 -4.9875662425 -0.3352840677
C -2.0673050277 -0.0080648638 0.0151921620
N -3.2203640117 -0.0149439947 -0.1578722052
C -4.6349727288 -0.0173925211 -0.3644667655
H -5.0384255160 0.9706299832 -0.1286250991
H -5.0936681766 -0.7697296686 0.2823978002
H -4.8433501959 -0.2596803751 -1.4099533579
C -0.0166350713 0.0242683945 5.1529603600
C 1.1797503573 -0.0162409878 4.4377330811
C 1.1365186643 -0.0151703058 3.0495470826
N -0.0182212242 0.0253964840 2.3446780727
C -1.1725528836 0.0704485839 3.0501443331
C -1.2137894801 0.0702632087 4.4389328666
H -0.0155503542 0.0191085827 6.2386442928
H 2.1392914004 -0.0494296419 4.9424364081
H 2.0503562647 -0.0491455539 2.4721209062
H -2.0859840958 0.1068566048 2.4716485921
H -2.1721975925 0.1055310444 4.9457345799
C -0.0076888665 -0.0086911403 -1.9062692115
N 0.0015493216 -0.0089304671 -3.0681068942
C 0.0148419410 -0.0081631762 -4.4980608309
H -0.6039875251 -0.8318729335 -4.8624706675
H 1.0426578706 -0.1354383369 -4.8468176057
H -0.3836070403 0.9430457404 -4.8597165602
