19
# extracted from Terachem optimization
Cr 0.0013152512 0.0000753360 0.0032550566
O 0.2833324667 2.1542018651 0.0936172207
H 1.1148715318 2.6410174158 0.2312129170
H -0.4357061676 2.7299495012 0.4074795847
O 2.0263746834 -0.4043835010 -0.3187257154
H 2.5939018261 -0.2048388157 -1.0835862722
H 2.6007952918 -0.4622769771 0.4657185378
O -0.2734015582 -2.1535337746 -0.0999695439
H 0.4512121804 -2.7274045072 -0.4047181372
H -1.1024600073 -2.6365448608 -0.2627357358
O -2.0217166891 0.4130760926 0.3278336445
H -2.5945294709 0.1981225921 1.0842584903
H -2.5900870844 0.4829166855 -0.4599068394
O 0.4856678279 -0.3481322858 2.0370560664
H 0.2987548466 0.2411065289 2.7890800395
H 0.3781686389 -1.2607410370 2.3601776602
O -0.4998627406 0.3413529643 -2.0296076986
H -0.3906879010 1.2506521439 -2.3611567291
H -0.3259431119 -0.2546152776 -2.7792820508
