25
# extracted from Terachem optimization
Cr -0.0213960945 0.0302532112 0.0095535372
N -0.2524717974 2.1929474136 0.4112702450
H -1.2123093232 2.4538369122 0.6505296249
H 0.3185593568 2.5566505570 1.1784745478
H -0.0241148881 2.7696755536 -0.4024430635
N 2.1570563443 0.3075408411 -0.2896367714
H 2.4273975737 1.2936471141 -0.3188131008
H 2.7298325039 -0.1021702427 0.4524942192
H 2.5148786687 -0.0852921316 -1.1640406401
N 0.1991903175 -2.1342272986 -0.3970101618
H 1.1550305355 -2.3967725224 -0.6504124677
H -0.0192184649 -2.7123014748 0.4185186471
H -0.3841749859 -2.4953399226 -1.1562073256
N -2.1971449957 -0.2481654266 0.3150781705
H -2.4604327794 -1.2354035430 0.3643552344
H -2.5599435320 0.1606767346 1.1802168168
H -2.7737398281 0.1417276571 -0.4349280308
N 0.4340237897 -0.4571946504 2.5072105501
H -0.3983862075 -0.7693300268 3.0131140427
H 1.1361061627 -1.1732366848 2.7094009169
H 0.7509342328 0.3620027764 3.0314480174
N -0.3602183134 0.5008346672 -2.5123254289
H -1.2501588521 0.9454718746 -2.7501263426
H 0.3465882739 1.1047969988 -2.9388223265
H -0.3448542558 -0.3465930933 -3.0851290615
