34
# extracted from Terachem optimization
Cr -0.0000141460 -0.0000328366 -0.0340715779
O -0.0001293579 -0.0003825490 2.0384885114
H 0.7842401827 0.0321585333 2.6178369331
H -0.7847173011 -0.0305616199 2.6176901167
C -0.0006338306 2.1078764205 -0.0629738301
N -0.0006077084 3.2648817279 -0.0395643159
C 0.0002144309 4.7009840410 -0.0042040826
H 0.8396214955 5.0640754164 -0.6036459357
H 0.1076906784 5.0248984766 1.0347683518
H -0.9461337786 5.0609791472 -0.4173227370
C 2.1087440702 0.0005433645 -0.0325202252
N 3.2663819835 0.0005302561 -0.0194093770
C 4.7034389497 -0.0000498959 -0.0034869128
H 5.0574468737 -0.8401736925 -0.6074712672
H 5.0417699282 -0.1083037445 1.0310950552
H 5.0571229903 0.9468786546 -0.4208176937
C 0.0006407246 -2.1078200375 -0.0631226424
N 0.0006321321 -3.2649770503 -0.0396167508
C -0.0000898188 -4.7009994546 -0.0042297651
H -0.8395469807 -5.0641289369 -0.6035871587
H -0.1074896012 -5.0249205559 1.0347562257
H 0.9462737845 -5.0609105536 -0.4174004295
C -2.1087049542 -0.0006535660 -0.0319064986
N -3.2662872869 -0.0007443889 -0.0185730255
C -4.7033691858 0.0004221314 -0.0034050597
H -5.0594932222 -0.6088509779 -0.8388354073
H -5.0525213156 1.0316010614 -0.1065047425
H -5.0440756496 -0.4223888388 0.9461834473
C -0.0002353877 0.0004258208 -2.1043575453
N -0.0004232535 0.0005766583 -3.2613945862
C -0.0002182332 0.0000430763 -4.6988067102
H -0.6080414450 -0.8390400843 -5.0480583853
H 1.0304210523 -0.1079419797 -5.0476193045
H -0.4219078309 0.9460049819 -5.0492336755
