17
# extracted from Terachem optimization
Cr 0.0000047100 0.0018608641 -0.0000006343
O -0.0000546062 2.0952068349 -0.0000778532
H 0.6894595405 2.6735750871 -0.3740952154
H -0.6894694850 2.6736157069 0.3740680254
O 2.0892509900 -0.0060656422 -0.0092533130
H 2.6870840362 0.0239574883 -0.7789247387
H 2.6638491604 -0.0222602051 0.7785636802
O 0.0000579721 -2.0930982782 0.0000849933
H 0.7122045738 -2.6713720219 -0.3293185650
H -0.7121945453 -2.6713165423 0.3293448908
O -2.0892527665 -0.0061351812 0.0092495172
H -2.6870876602 0.0236643110 0.7789287703
H -2.6638528232 -0.0220463547 -0.7785721851
C -0.0032194039 0.0010434545 2.1070106132
O 0.0069738663 -0.0009409385 3.2362431404
C 0.0032238314 0.0011978946 -2.1069300831
O -0.0069773928 -0.0008864738 -3.2363210367
