59
# extracted from Terachem optimization
Cr 0.0335433803 0.0039309039 -0.0125039745
O 0.0700474269 2.2348969412 -0.0167641089
C -1.0188676516 3.1022361378 0.1334967889
C -0.5898679893 4.3809363356 0.0548189375
C 0.8352813898 4.3424352709 -0.1532612301
C 1.2005759312 3.0427189388 -0.1922797312
H -1.9714639940 2.6204062142 0.2848351051
H -1.2055004490 5.2664116103 0.1343516138
H 2.1282660580 2.5118438777 -0.3284001214
H 1.4964157542 5.1916386182 -0.2606197546
O 2.5126854513 0.0143016822 0.0594663105
C 3.2852819507 -0.1751236248 1.2041758886
C 4.5997973417 -0.1463666365 0.8869767542
C 4.6825028032 0.0776261327 -0.5319783732
C 3.4137435488 0.1662316529 -0.9926575020
H 2.7282100333 -0.2982052219 2.1184787156
H 5.4255950358 -0.2685211710 1.5743408244
H 2.9759843520 0.3177436687 -1.9661553826
H 5.5833563901 0.1582661433 -1.1243689747
O 0.0651500509 -2.2316328289 -0.0087044359
C 1.1857122344 -3.0401536423 0.2185782200
C 0.8128573952 -4.3383971964 0.2087136782
C -0.6066183936 -4.3745412592 -0.0335022667
C -1.0248570380 -3.0962160535 -0.1604647608
H 2.1129032501 -2.5108780911 0.3667978622
H 1.4661932871 -5.1876079293 0.3549717784
H -1.9700891884 -2.6136472181 -0.3493686391
H -1.2268555283 -5.2573065550 -0.1023701185
O -2.4845914732 0.0071564725 -0.0672815278
C -3.3656704799 0.3028544230 0.9705261118
C -4.6439239436 0.1636862797 0.5493028611
C -4.5885396075 -0.2421111639 -0.8293126902
C -3.2795900553 -0.3218627475 -1.1630232212
H -2.9116216190 0.5724989013 1.9103677638
H -5.5336846308 0.3267868679 1.1418921294
H -2.7454533075 -0.5634947942 -2.0677761720
H -5.4289816145 -0.4430096491 -1.4793243891
C -0.3614154850 0.0523442643 4.9085716570
C -0.7692609310 -1.0619945048 4.1740793749
C -0.6359017412 -1.0440144157 2.7911709029
N -0.1251232259 0.0155939599 2.1181221066
C 0.2686057754 1.0934970904 2.8405452599
C 0.1661963375 1.1488336558 4.2247752674
H -0.4485218593 0.0650299227 5.9904244010
H -1.1820736932 -1.9396114495 4.6600857992
H -0.9475575832 -1.8933530422 2.1956438082
H 0.6805125225 1.9246792459 2.2816460268
H 0.4963927472 2.0382699435 4.7507667610
C 0.0631306438 -0.0196545138 -4.9433371468
C -0.4329126736 1.0768970304 -4.2365196409
C -0.4011956666 1.0532461298 -2.8478932654
N 0.0903373058 0.0048089505 -2.1439340526
C 0.5726879859 -1.0540850616 -2.8382126138
C 0.5764547480 -1.1022381983 -4.2267392787
H 0.0507506407 -0.0300784090 -6.0289100573
H -0.8379762525 1.9435087893 -4.7480649996
H -0.7808906717 1.8874022564 -2.2709408268
H 0.9637014654 -1.8774435353 -2.2528906483
H 0.9729253132 -1.9774433548 -4.7304279767
