42
# extracted from Terachem optimization
Fe 0.0088670753 0.0783197575 -0.1178127480
C 0.2800600871 -0.0284143644 -1.9994365073
O 0.4227362685 -0.0604915615 -3.1215483436
O -0.3261682381 0.1946549565 1.8771939063
H 0.2428649142 0.7466362591 2.4418416905
H -1.2530627579 0.4084023044 2.1003123638
O 0.0119352211 2.1295673999 -0.2093869405
C -0.7163573557 2.9455691162 -1.0935450073
C -0.4236343031 4.2395653009 -0.8470017806
C 0.5326022866 4.2696075322 0.2310310955
C 0.7790247548 2.9929066636 0.5907231391
H -1.3672891557 2.4310465406 -1.7823439192
H -0.8326786056 5.0930986970 -1.3710211957
H 1.4464054160 2.5202840146 1.2924945398
H 0.9802431954 5.1489250159 0.6743943424
O 2.0008549832 0.0746417885 0.2722811625
C 2.6667318736 -0.8413977657 1.1083105958
C 3.9972049081 -0.7081906200 0.9346202463
C 4.2094006041 0.3174575377 -0.0559714773
C 2.9978629230 0.7660108959 -0.4415278133
H 2.0328930320 -1.4721201388 1.7096677968
H 4.7621094958 -1.2698230917 1.4530513227
H 2.6486072851 1.5290241557 -1.1182532200
H 5.1623888489 0.6730495458 -0.4235897742
O 0.0475084633 -1.9651351513 0.0505415858
C -0.5922681431 -2.7167763624 1.0486874962
C -0.3948997403 -4.0301207137 0.8123366760
C 0.4082783285 -4.1410765580 -0.3787113903
C 0.6635093547 -2.8896878320 -0.8117442404
H -1.1039473925 -2.1506429378 1.8061346042
H -0.7705284887 -4.8451414280 1.4159844780
H 1.2498304780 -2.4785261650 -1.6168168513
H 0.7558115412 -5.0536219538 -0.8443749622
O -2.0222982581 0.0241309131 -0.3581443093
C -2.7538977414 -1.0917387217 -0.7923823494
C -4.0385106466 -0.9671447195 -0.4003997331
C -4.1525531637 0.2754831924 0.3189581755
C -2.9308346514 0.8520925580 0.3357671011
H -2.1948821717 -1.8357246488 -1.3356985230
H -4.8333267363 -1.6718483827 -0.6034370405
H -2.5480852372 1.8158548779 0.6321523692
H -5.0531821038 0.6904383113 0.7517566701
