53
# extracted from Terachem optimization
Fe -0.0190764249 -0.0417441189 -0.0452702820
C -0.1106184999 -0.2334619751 1.9061084656
O -0.1481269566 -0.3443992580 3.0292515222
C 0.1015989556 0.1382192228 -2.0041759561
N 0.1832967147 0.2242309532 -3.1570806010
C 0.2988316792 0.3127945693 -4.5887762419
H -0.1982383837 -0.5516472107 -5.0356490403
H 1.3587452330 0.3137900858 -4.8547547980
H -0.1762714693 1.2363093042 -4.9287287111
C 0.0369669567 4.7787894703 0.4248037390
C 0.7921609626 3.9747278476 1.2817269783
C 0.7606033855 2.5958556873 1.1197110316
N 0.0163275173 1.9932519420 0.1569867537
C -0.7197833935 2.7771786105 -0.6706692314
C -0.7299944903 4.1618613647 -0.5664734667
H 0.0460450912 5.8602028131 0.5277678344
H 1.4040548807 4.4042808857 2.0683846312
H 1.3563885647 1.9584025444 1.7610949370
H -1.3211289368 2.2738946601 -1.4168326802
H -1.3345683243 4.7431714944 -1.2552297925
C 4.8097344635 -0.0305100150 0.3056739312
C 4.0469980873 -0.9313001430 1.0534335036
C 2.6652702294 -0.9312883630 0.9111077136
N 2.0200119718 -0.0810390360 0.0712398685
C 2.7655089391 0.7867028903 -0.6589608673
C 4.1500271309 0.8371530365 -0.5680493981
H 5.8913020861 -0.0051324022 0.4024259110
H 4.5101348070 -1.6292268440 1.7436115133
H 2.0574959913 -1.6348608717 1.4670450383
H 2.2317832120 1.4655135345 -1.3109655683
H 4.6958282340 1.5533784923 -1.1741329201
C -0.1268548411 -4.8640348651 -0.4510183595
C -0.9695435711 -4.2039737368 0.4464986077
C -0.9174693285 -2.8194932595 0.5327449412
N -0.0738280631 -2.0740861911 -0.2273024055
C 0.7440617694 -2.7186167804 -1.0972155339
C 0.7431189941 -4.1006304762 -1.2332706723
H -0.1473309165 -5.9466049773 -0.5375731396
H -1.6627768776 -4.7499798748 1.0781192788
H -1.5772050072 -2.2895363179 1.2085481726
H 1.4175557341 -2.1074848794 -1.6831194743
H 1.4194094105 -4.5636327576 -1.9444385239
C -4.8536214731 0.0668328582 -0.2332806774
C -4.1676092024 0.7348322493 0.7842381568
C -2.7797328459 0.6895517350 0.8087663490
N -2.0574053701 0.0114818438 -0.1200087914
C -2.7272113195 -0.6445395134 -1.1010091354
C -4.1132372737 -0.6325965260 -1.1894571803
H -5.9387923182 0.0902802055 -0.2793468449
H -4.6950126184 1.2886896651 1.5545959686
H -2.2298640345 1.2198268602 1.5768298691
H -2.1315300525 -1.1978537935 -1.8154239987
H -4.5997863027 -1.1670080530 -1.9989793300
