75
# extracted from Terachem optimization
Fe -0.0002440793 -0.0313800266 -0.2135931267
N 0.0852653721 2.2316332089 -0.5142639422
N 2.1526695919 0.6197723354 0.2184287516
C -0.9691040333 3.0413421352 -0.7171783455
H -1.9360055400 2.5579063731 -0.7588906057
C -0.8792920560 4.4234927748 -0.8366053154
H -1.7751842538 5.0173654353 -0.9793578520
C 0.3809822456 5.0138480800 -0.7228833014
C 1.4836113089 4.1857792236 -0.5140279714
H 2.4536467190 4.6491749495 -0.3781363917
C 3.7786305472 2.3490927415 -0.1368263241
H 4.0292629712 3.3437436561 -0.4866361432
C 4.8098815106 1.5103093139 0.2903980150
C 4.4836425525 0.2169930652 0.7039609660
H 5.2420598783 -0.4726877125 1.0569185042
C 3.1514869315 -0.1803293250 0.6305972114
H 2.8664176163 -1.1797239261 0.9389334861
C 1.3137345916 2.7988653007 -0.4212957196
C 2.4551945676 1.8967358994 -0.1213957779
P 6.5015124957 2.2031568363 0.2763047194
P 0.6653438268 6.8212870387 -0.7310518750
O 2.0165605931 7.1725757718 -0.2444239395
O 0.3142258284 7.3162522471 -2.2278427841
H 1.0881035377 7.7160079870 -2.6646791682
O -0.6370849047 7.2431877155 0.1137294995
H -0.7148606615 8.2024278201 0.2696358254
O 6.6777989899 3.2317855782 -0.7706845379
O 7.3378027801 0.8321768887 0.2131192646
H 8.2992675944 0.9561617834 0.1129072114
O 6.7121156899 2.7246692238 1.7915748043
H 6.9611285402 3.6666304194 1.8148966365
N -0.0550393148 -2.2964973210 0.0014522850
N -2.1797050900 -0.6998594275 -0.5041538370
C 1.0183865156 -3.1063612224 0.0344861307
H 1.9800136946 -2.6229484741 -0.0914781342
C 0.9449811857 -4.4862472690 0.1925690948
H 1.8500024976 -5.0834174024 0.2056020147
C -0.3168960221 -5.0662889885 0.3403323596
C -1.4382926129 -4.2365183445 0.3026129791
H -2.4177688958 -4.6879087378 0.4093508717
C -3.7672950755 -2.3877188428 0.1345908849
H -3.9886445756 -3.3883615638 0.4877588955
C -4.8305605766 -1.5223730662 -0.1238765054
C -4.5480236848 -0.2520552733 -0.6309837122
H -5.3379857874 0.4415281369 -0.8965475169
C -3.2150060543 0.1045313233 -0.7995122561
H -2.9647551778 1.0750942177 -1.2096486758
C -1.2842365724 -2.8589841460 0.1084026388
C -2.4510814536 -1.9563489292 -0.0724845722
P -6.5251364203 -2.1166310344 0.2072260219
P -0.6066575057 -6.8622018250 0.5260456348
O -1.9582488115 -7.1710155329 1.0384207119
O -0.2744243484 -7.4431850779 -0.9455288171
H -1.0233957543 -7.9510566197 -1.3071115618
O 0.6921573331 -7.2305947803 1.3991047411
H 0.7128837933 -8.1545728282 1.7091716617
O -6.6453747456 -3.5835859458 0.3419735506
O -7.2810473482 -1.3848807850 -1.0114933984
H -8.1702049958 -1.7416002230 -1.1911559792
O -6.9190211732 -1.2698743515 1.5281984992
H -7.3483092438 -1.8348367250 2.1965835467
C -1.3289633666 -0.4205964356 2.8314392669
N -0.3562807700 0.3099497732 1.9753304606
H 0.5775938934 0.2243151060 2.3803573347
H -0.5579328768 1.3103122261 2.0267126046
H -1.0938660361 -1.4863586986 2.8169938257
H -2.3366476325 -0.2751311071 2.4384607543
H -1.3013248792 -0.0680807333 3.8670280805
C 1.3499338610 0.3787988779 -3.2235044323
N 0.3573026163 -0.3603830940 -2.3976790651
H 0.5517907745 -1.3615487958 -2.4570846492
H -0.5678001950 -0.2628568851 -2.8203264095
H 2.3468620500 0.2432576831 -2.8002337033
H 1.1043528264 1.4421026522 -3.2143157377
H 1.3567268266 0.0277490513 -4.2598609364
