25
# extracted from Terachem optimization
Fe 0.0016810378 -0.0129592905 -0.0060449504
N -0.2592973094 2.2357819910 0.3039850405
H -1.2449135733 2.5054015078 0.3447122153
H 0.1411923758 2.5730395639 1.1826530018
H 0.1498508842 2.8318284744 -0.4195422704
N 2.2526488254 0.2703235260 -0.3823254158
H 2.5023839387 1.2565794526 -0.4833694286
H 2.8360118923 -0.0650036835 0.3881906544
H 2.6292269941 -0.1847773072 -1.2175381701
N 0.2640164222 -2.2595261585 -0.3139464139
H 1.2501703674 -2.5256845549 -0.3651645108
H -0.1364576153 -2.8593699148 0.4114637326
H -0.1444524994 -2.5987594077 -1.1884684758
N -2.2465241667 -0.3202240750 0.3826041465
H -2.4564532258 -1.2900444705 0.6291365514
H -2.6658165614 0.2390476276 1.1292977172
H -2.8222154562 -0.1374305412 -0.4428337904
N 0.4227316757 -0.3120179016 2.2261054053
H -0.4354388359 -0.3036966330 2.7822405990
H 0.8822120032 -1.1938214257 2.4649662928
H 1.0148261606 0.4134154720 2.6375519730
N -0.4328001015 0.3888769063 -2.2162307996
H -1.1464420322 1.0968888164 -2.4052481036
H 0.3948547577 0.6991713618 -2.7306086948
H -0.7509969024 -0.4470367343 -2.7115880910
