13
# extracted from Terachem optimization
Fe -0.0000143641 -0.0000018849 0.0000037747
C 0.0562132690 2.0177843073 -0.0000352724
O 0.0808230451 3.1380800543 0.0000745274
C 2.0178304038 0.0562471166 0.0000328944
O 3.1380786499 0.0808131292 -0.0000792303
C -0.0562326675 -2.0178534666 0.0000485608
O -0.0807781220 -3.1380143325 -0.0000905796
C -2.0178685310 -0.0562467529 -0.0000355340
O -3.1380494827 -0.0808051881 0.0000804958
C 0.0000220642 -0.0000242396 2.0379524810
O 0.0000225499 -0.0000200532 3.1584475999
C -0.0000267288 0.0000215573 -2.0380061086
O -0.0000201167 0.0000197491 -3.1583936079
