33
# extracted from Terachem optimization
Fe -0.0000282411 0.0001428392 -0.0432199047
C 0.0001709061 0.0000623009 1.8190680024
O 0.0000471312 0.0000005485 2.9547572234
C -0.0006050267 1.9363262327 -0.0503710965
N -0.0007421527 3.0964561977 -0.0362068381
C 0.0003036918 4.5283313423 -0.0047645425
H 0.8366871533 4.8977673263 -0.6026568908
H 0.1080006856 4.8603374188 1.0305531443
H -0.9427878422 4.8952675252 -0.4164155385
C 1.9362628834 0.0006859812 -0.0506354906
N 3.0963533638 0.0007574077 -0.0362813261
C 4.5282624232 -0.0001411228 -0.0046899187
H 4.8978427385 -0.8365145576 -0.6025124601
H 4.8602250878 -0.1078202749 1.0306441001
H 4.8951179652 0.9430073479 -0.4162795861
C 0.0005997676 -1.9361857011 -0.0505162664
N 0.0007379427 -3.0963111077 -0.0362437119
C -0.0001824170 -4.5282071541 -0.0047963296
H -0.8366104201 -4.8977016046 -0.6025901438
H -0.1077973582 -4.8602601397 1.0305169629
H 0.9429232194 -4.8950490837 -0.4164917278
C -1.9362576413 -0.0003493388 -0.0496725261
N -3.0963884592 -0.0004224665 -0.0349360325
C -4.5282786278 -0.0001321110 -0.0050258198
H -4.9026741789 -0.6070456275 -0.8326695287
H -4.8866203893 1.0270866000 -0.1042706629
H -4.8640849532 -0.4198506125 0.9461995971
C -0.0004335267 0.0004542511 -1.9832547989
N -0.0005370440 0.0006439744 -3.1437551522
C -0.0000028328 -0.0000881145 -4.5765463193
H -0.6062963354 -0.8359420405 -4.9338909232
H 1.0270270778 -0.1079737723 -4.9335660012
H -0.4202355901 0.9426665323 -4.9351274700
