53
# extracted from Terachem optimization
Fe -0.0030259200 0.0001582894 -0.0030352868
C 4.3449116533 -0.5091738440 -0.6560152527
C 4.6337697578 0.6391888670 -1.3656190125
C 3.6253372541 1.6145603668 -1.5310263551
C 3.8603638980 2.8868350740 -2.1523313104
C 2.8986992104 3.8528273378 -2.1521829399
C 1.6258164522 3.6236951874 -1.5298670991
C 0.6556618556 4.6369272141 -1.3632590277
C -0.4927474360 4.3539131163 -0.6514848120
C -0.6999170740 3.0489732452 -0.1723690611
N 0.1522459527 2.0416278138 -0.3768772377
C 1.3315345469 2.3417141752 -1.0009539746
C 2.3418913012 1.3261778362 -1.0023344054
N 2.0356174487 0.1462743526 -0.3819967428
C 3.0386523943 -0.7114181867 -0.1786276771
H 5.1043553986 -1.2583064587 -0.4600449486
H 5.6294441760 0.8168796785 -1.7616804166
H 4.8349184569 3.0787859349 -2.5908148748
H 3.0948741266 4.8265459416 -2.5906716230
H 0.8375527378 5.6315862371 -1.7599541590
H -1.2379152537 5.1169753450 -0.4544336117
H -1.5858726447 2.8277094734 0.4075884508
H 2.8120541956 -1.5978534671 0.3985554225
C -4.3495586108 0.5078880334 0.6734892512
C -4.6327633404 -0.6400771234 1.3859202390
C -3.6223310481 -1.6144266841 1.5448631441
C -3.8519529839 -2.8868636492 2.1680288406
C -2.8899845730 -3.8526132238 2.1608899061
C -1.6216611993 -3.6227070928 1.5295169300
C -0.6524571688 -4.6354483016 1.3545107360
C 0.4903426600 -4.3516624619 0.6339274690
C 0.6939809712 -3.0461319998 0.1551351282
N -0.1566979275 -2.0389893042 0.3680836463
C -1.3320216772 -2.3401783318 0.9994616250
C -2.3427389817 -1.3252013105 1.0075238388
N -2.0417367520 -0.1462074758 0.3832374716
C -3.0468186679 0.7104175805 0.1865558396
H -5.1108451368 1.2563674048 0.4822424399
H -5.6255741207 -0.8182806429 1.7888824579
H -4.8232614800 -3.0793651663 2.6134196356
H -3.0827475088 -4.8265600934 2.6003960604
H -0.8310336683 -5.6305505702 1.7516060195
H 1.2338072367 -5.1145791217 0.4299988516
H 1.5752904244 -2.8234725086 -0.4314088334
H -2.8253639162 1.5967423656 -0.3928582268
N 0.3652615728 0.3651680849 1.9971372485
H -0.4568087574 0.7217640660 2.4861202869
H 0.6565405165 -0.4740382280 2.4999528178
H 1.1047020774 1.0561532384 2.1287479726
N -0.3821601599 -0.3431988081 -2.0032038377
H -0.8202774479 0.4543554836 -2.4664453760
H 0.4688843266 -0.5477348766 -2.5284047742
H -1.0089264376 -1.1369969306 -2.1402275228
