14
# extracted from Terachem optimization
Fe 0.0000021207 -0.0000035860 -0.0586784547
C -0.0010942588 1.9469200059 0.0101700322
O -0.0023338654 3.0694866641 0.0935278243
C 1.9449099397 -0.0012428238 -0.0439239333
O 3.0708307915 -0.0025757904 -0.0242758185
C 0.0010926019 -1.9469062106 0.0101016874
O 0.0023358210 -3.0694894252 0.0935432189
C -1.9449032698 0.0012462828 -0.0439295494
O -3.0708364420 0.0025667522 -0.0242703096
C 0.0000001370 -0.0000121748 -1.9622482319
O 0.0000002753 -0.0000047603 -3.0888266701
O -0.0000019852 0.0000037573 2.0028603635
H 0.7829908381 0.0390339552 2.5851373961
H -0.7829926995 -0.0390226642 2.5851394887
