25
# extracted from Terachem optimization
Fe 0.0000036694 0.0008284772 0.0000029011
O -0.0000014521 2.0826176082 -0.0000000250
H 0.7095615656 2.6639785834 -0.3433261024
H -0.7095643426 2.6639778879 0.3433278495
O 2.0752423217 -0.0101382956 -0.0165553545
H 2.6705879401 0.0167630576 -0.7949983148
H 2.6506750450 -0.0232848496 0.7777453177
O -0.0000013412 -2.0786115247 0.0000001298
H 0.7280576604 -2.6597223517 -0.3032640485
H -0.7280604013 -2.6597217492 0.3032656589
O -2.0752429640 -0.0101381803 0.0165555798
H -2.6705902121 0.0167599969 0.7949974447
H -2.6506770280 -0.0232811361 -0.7777445110
C -0.0121922141 0.0062881935 2.1702512066
N -0.0047771708 0.0047217839 3.3292329576
C 0.0057815693 0.0013900823 4.7663961786
H 0.6126487572 -0.8433431131 5.1087930618
H -1.0251732711 -0.1089493766 5.1198863875
H 0.4267436229 0.9498786756 5.1154762375
C 0.0122013726 0.0062878359 -2.1702256622
N 0.0047934845 0.0047238592 -3.3292664776
C -0.0057885567 0.0013895791 -4.7663949268
H -0.6126508982 -0.8433451417 -5.1088055942
H 1.0251681438 -0.1089491338 -5.1198664181
H -0.4267452985 0.9498792376 -5.1154834233
