19
# extracted from Terachem optimization
Fe -0.0000403457 -0.0021141950 -0.0001113977
O -0.0002544313 2.0527925302 0.0003599379
H 0.7776795291 2.6407769199 -0.1316730816
H -0.7775818733 2.6412400852 0.1341215491
O 2.0232500578 -0.0171418609 -0.3375098942
H 2.4698878768 -0.0070690209 -1.2129311691
H 2.7243452830 -0.0462920589 0.3506221742
O 0.0002030638 -2.0547711845 -0.0002276486
H 0.7676256090 -2.6435709739 -0.1795805085
H -0.7670868249 -2.6434958232 0.1798642439
O -2.0225711120 -0.0166547883 0.3371225931
H -2.4698419830 -0.0077431783 1.2120810985
H -2.7239710116 -0.0458192287 -0.3505146459
O 0.3314047543 0.0182906329 2.0141985552
H 0.4319192344 0.8172227029 2.5793287860
H 0.4283341834 -0.7606787729 2.6071069764
O -0.3318693696 0.0184451083 -2.0148025152
H -0.4337534358 0.8173474778 -2.5798349114
H -0.4276794569 -0.7607643165 -2.6076201999
