54
# extracted from Terachem optimization
Fe -0.0222158940 -0.0264930641 -0.1042711717
O -0.1999408409 -0.0386828815 1.9819194666
H 0.5557005462 -0.0597947610 2.5935743089
H -0.9872998367 0.2206620871 2.4909780616
C 0.1206791013 -0.0488801229 -2.0306024869
N 0.1768274734 -0.0695870179 -3.1878009119
C 0.2273174408 -0.0991721057 -4.6256519151
H -0.3338020237 -0.9681775150 -4.9780955007
H 1.2703495544 -0.1718560433 -4.9423999893
H -0.2205234270 0.8192558865 -5.0135770595
C 0.0175588762 4.8199172897 -0.0211852589
C 0.6204689412 4.0737403242 0.9940953977
C 0.5825694048 2.6868329551 0.9294137261
N -0.0200077409 2.0207596502 -0.0858684031
C -0.6074653906 2.7487210076 -1.0680807141
C -0.6074239816 4.1379148049 -1.0680394859
H 0.0322036796 5.9057257539 0.0032021075
H 1.1190285667 4.5540812852 1.8297705275
H 1.0506200545 2.0889971311 1.6987688198
H -1.1038871630 2.1990078922 -1.8578253578
H -1.0965529261 4.6704507814 -1.8776843884
C 4.7775733029 0.0845810855 0.3889951602
C 3.9983383520 -0.7775850800 1.1652375896
C 2.6222387612 -0.7986882309 0.9769996241
N 1.9988227201 -0.0024161127 0.0718126399
C 2.7596906475 0.8279711330 -0.6830620443
C 4.1407407208 0.8961965425 -0.5522121462
H 5.8557213928 0.1203459252 0.5139253490
H 4.4467309722 -1.4338837139 1.9045392125
H 2.0007263349 -1.4855751119 1.5397288039
H 2.2383595158 1.4586801669 -1.3918231830
H 4.7011891130 1.5820632909 -1.1795994853
C 0.0145306259 -4.8474088122 0.0381929438
C -0.7923743369 -4.1082266866 0.9061624460
C -0.7792247877 -2.7214130826 0.8287267294
N -0.0121920919 -2.0509423129 -0.0671905136
C 0.7707183638 -2.7739300958 -0.9095779321
C 0.8091926163 -4.1608109250 -0.8836127952
H 0.0283638829 -5.9324450716 0.0834681453
H -1.4244270022 -4.5948426998 1.6422123704
H -1.3859778769 -2.1251657431 1.4947808811
H 1.3925208407 -2.2199628684 -1.6008827434
H 1.4572118483 -4.6908589424 -1.5741960181
C -4.8455748994 0.0247418701 -0.2378168481
C -4.1425223648 0.8860016980 0.6086508025
C -2.7547669428 0.8575231448 0.5992725711
N -2.0479768110 0.0140370842 -0.1948377567
C -2.7341398882 -0.8140286633 -1.0200982277
C -4.1226041122 -0.8332601410 -1.0686186417
H -5.9311876598 0.0261588576 -0.2529720890
H -4.6589383661 1.5806175842 1.2633509688
H -2.1868901658 1.5478407244 1.2117755442
H -2.1489908281 -1.4823661243 -1.6387276411
H -4.6224432863 -1.5163775421 -1.7478251868
