67
# extracted from Terachem optimization
Fe -0.0217476405 0.0104506356 -0.0001851953
C -0.0935301951 4.9910015092 0.1152943746
C 1.1124127502 4.2935416962 0.0573800403
C 1.0907982156 2.9031620644 0.0261458609
N -0.0475353853 2.1708444082 0.0465885103
C -1.2084132264 2.8636251743 0.1047092361
C -1.2753982287 4.2529692482 0.1409102125
H -0.1115983844 6.0760344366 0.1406297328
H 2.0645594276 4.8127993964 0.0384014121
H 2.0108491259 2.3398995000 -0.0091750791
H -2.1115081898 2.2741352434 0.1167427431
H -2.2447678416 4.7383810688 0.1862621278
C 4.9744747644 -0.0870850970 -0.0238711913
C 4.2559581456 -0.3697256174 1.1367765820
C 2.8657534770 -0.3129149221 1.1046377113
N 2.1545378980 0.0018367725 -0.0032051250
C 2.8679684411 0.2765478961 -1.1205950860
C 4.2582741133 0.2458228180 -1.1729387376
H 6.0597806681 -0.1218575544 -0.0319070116
H 4.7579589978 -0.6347645896 2.0614689810
H 2.2891552864 -0.5433912375 1.9885711703
H 2.2929328878 0.5403240465 -1.9967518302
H 4.7627473927 0.4795668291 -2.1044824304
C -0.0539050744 -4.9784880637 -0.0899080669
C -1.2407261433 -4.2518084925 -0.0106054501
C -1.1853331532 -2.8619881140 0.0093877859
N -0.0312174516 -2.1569037410 -0.0453868468
C 1.1104147232 -2.8782439779 -0.1338176435
C 1.1441876643 -4.2689434185 -0.1552171175
H -0.0633174790 -6.0639326218 -0.1023446681
H -2.2048559751 -4.7465927181 0.0382465039
H -2.0908817583 -2.2795689257 0.0791386545
H 2.0242273858 -2.3082779460 -0.2021491374
H 2.0994703419 -4.7785613797 -0.2249763481
C -4.9879224994 -0.0111256047 0.0073147387
C -4.2721304499 -0.0923129946 -1.1862824618
C -2.8814387557 -0.0860237803 -1.1431161429
N -2.1701649680 0.0001234331 0.0046050689
C -2.8800982230 0.0815979684 1.1546346653
C -4.2704306749 0.0777402660 1.1999417079
H -6.0733555525 -0.0138415281 0.0086845033
H -4.7768602264 -0.1588841618 -2.1446570250
H -2.3031396570 -0.1558990570 -2.0517862727
H -2.2996857481 0.1608453965 2.0617012494
H -4.7739482235 0.1454578950 2.1587938761
C 0.1604035392 -0.0742220939 4.9731132773
C 0.3436708308 1.1134489486 4.2675361263
C 0.2684259154 1.0952300762 2.8780496513
N 0.0199670497 -0.0211590921 2.1558552651
C -0.1584445460 -1.1661953439 2.8564332150
C -0.0966644966 -1.2350563277 4.2445810697
H 0.2144437203 -0.0949456587 6.0573323941
H 0.5456946162 2.0490347609 4.7784375643
H 0.4178122147 2.0012843943 2.3110837322
H -0.3584691186 -2.0531140955 2.2735449129
H -0.2491636419 -2.1888330283 4.7382895648
C 0.0690674515 0.1199731838 -4.9770648403
C 0.1904593050 -1.0833800071 -4.2847565619
C 0.1492293622 -1.0730961747 -2.8941522794
N -0.0063239006 0.0506086054 -2.1576582609
C -0.1300888825 1.2105263675 -2.8454440935
C -0.0961469533 1.2882386682 -4.2341919579
H 0.1004210879 0.1469784106 -6.0619150488
H 0.3164343320 -2.0256893776 -4.8069902992
H 0.2397130062 -1.9929650200 -2.3375180478
H -0.2625332044 2.1022629476 -2.2514556218
H -0.1991772559 2.2544054016 -4.7169456508
