51
# extracted from Terachem optimization
Fe -0.0034196708 0.0188686269 0.0015463405
O 0.0502700476 -0.0153868403 2.0832227389
H 0.6710325838 0.5746950015 2.5430122594
H 0.0236124934 -0.8412617912 2.5969422542
O -0.0500729245 0.0697228024 -2.0825518369
H -0.6437016835 0.6995644574 -2.5244240402
H -0.0708469691 -0.7447160936 -2.6134935703
C 0.0103239388 4.8969414606 0.0216921560
C 0.9718440925 4.1779992641 0.7315387821
C 0.9355881962 2.7880185628 0.6974026506
N -0.0022125765 2.0856623581 0.0243366302
C -0.9343401406 2.7956202031 -0.6495574524
C -0.9587700081 4.1855676668 -0.6858186542
H 0.0155000464 5.9826301047 0.0201797409
H 1.7479640328 4.6808375454 1.2988203488
H 1.6979180431 2.2093210815 1.2074607850
H -1.7024040865 2.2228015955 -1.1580019813
H -1.7311043666 4.6940153390 -1.2534994073
C 4.8600888141 -0.0185733144 -0.1779532165
C 4.1782339102 -0.7034215275 0.8292977045
C 2.7886821058 -0.6715985407 0.8396434699
N 2.0564983233 0.0017370081 -0.0755793244
C 2.7256909628 0.6600739104 -1.0474899513
C 4.1146532157 0.6711762545 -1.1342610278
H 5.9450690933 -0.0262046071 -0.2164165888
H 4.7094924941 -1.2592002946 1.5950909055
H 2.2293460793 -1.2062066200 1.5987711546
H 2.1174475499 1.1853040264 -1.7729720866
H 4.5967997833 1.2157247157 -1.9394018205
C 0.0086321947 -4.8491962467 -0.0216777079
C -0.8333762217 -4.1385076424 0.8339920244
C -0.8192817457 -2.7485006111 0.7918378421
N -0.0061029571 -2.0413213831 -0.0246811698
C 0.8131133041 -2.7408629346 -0.8408894924
C 0.8414238582 -4.1311860197 -0.8799398215
H 0.0149201931 -5.9346825897 -0.0196170786
H -1.5012072187 -4.6476954352 1.5206811655
H -1.4974803897 -2.1717987316 1.4120811225
H 1.4843756059 -2.1586394642 -1.4633574685
H 1.5138760274 -4.6351808194 -1.5657391268
C -4.8640216471 -0.0174377682 0.1772150633
C -4.1820386781 -0.6943362693 -0.8351831097
C -2.7926673934 -0.6625361634 -0.8448931527
N -2.0615906127 0.0026857924 0.0769956103
C -2.7303700871 0.6537810841 1.0539634695
C -4.1193075476 0.6646010411 1.1395282890
H -5.9488852134 -0.0250541744 0.2150631085
H -4.7129112822 -1.2436989665 -1.6055259762
H -2.2332006955 -1.1919248237 -1.6078679205
H -2.1213422909 1.1745623977 1.7825434511
H -4.6017106207 1.2032378377 1.9481515891
