43
# extracted from Terachem optimization
Fe 0.0006386804 0.0020771770 -0.0203170270
C 0.0233425469 1.9575928678 -0.0572976490
N 0.0650465063 3.1166897239 -0.1177998195
C 0.1403815251 4.5439509051 -0.2016184867
H 0.9515390686 4.8181215860 -0.8805494253
H 0.3370033333 4.9482816065 0.7942373815
H -0.8074479971 4.9344947850 -0.5797375509
C 1.9538519030 0.0408991258 0.0283584100
N 3.1110961093 0.0851197222 0.1154662829
C 4.5340273329 0.1537019286 0.2561494535
H 4.9924912009 -0.6681378897 -0.2989695019
H 4.7866703996 0.0713430456 1.3163072892
H 4.8877902360 1.1099409958 -0.1362197860
C -0.0222428376 -1.9534411836 -0.0589071057
N -0.0643353957 -3.1124857530 -0.1194661366
C -0.1403206376 -4.5396685097 -0.2027136766
H -0.9516857667 -4.8137237894 -0.8813545823
H -0.3370930275 -4.9435013076 0.7932760543
H 0.8072182760 -4.9308807951 -0.5807519663
C -1.9524044498 -0.0378704016 0.0265762176
N -3.1099746117 -0.0849103028 0.1083138220
C -4.5334459327 -0.1633104282 0.2381269763
H -4.9291667342 -0.8158373963 -0.5438033597
H -4.9616453817 0.8369860151 0.1383061376
H -4.7746473854 -0.5736735600 1.2219725177
O 0.0012796603 0.0006502190 2.0893381407
C -0.7466975419 0.8295908159 2.9216211703
C -0.4788025338 0.5340496902 4.2125803090
C 0.4838264658 -0.5362704312 4.2111386895
C 0.7502086506 -0.8296788446 2.9193828158
H -1.3823658829 1.5436858965 2.4255042835
H -0.9113898250 1.0173644074 5.0776143839
H 1.3847840433 -1.5433872879 2.4213186871
H 0.9171776939 -1.0211172068 5.0749186999
O -0.0005093822 0.0030689419 -2.1288665353
C -0.8637033434 0.7137269924 -2.9590755894
C -0.5597358540 0.4592532369 -4.2508071274
C 0.5516661683 -0.4551386106 -4.2521656034
C 0.8598813235 -0.7083096798 -2.9612083389
H -1.6039720440 1.3163550004 -2.4603449211
H -1.0628153674 0.8686387202 -5.1158299436
H 1.6023474139 -1.3096018427 -2.4642531976
H 1.0522634263 -0.8647485139 -5.1184531166
