34
# extracted from Terachem optimization
Fe -0.0000069741 0.0000244318 -0.1089428685
O -0.0000719031 -0.0011118795 2.0064545914
H 0.7827130552 0.0321232254 2.5779187840
H -0.7832254546 -0.0298030641 2.5776839439
C -0.0008740613 1.9404622766 -0.0714945687
N -0.0008884569 3.1018270590 -0.0401360629
C -0.0000151476 4.5324219830 -0.0040677195
H 0.8360173513 4.9055172582 -0.6003058248
H 0.1076073782 4.8638489178 1.0312694719
H -0.9423838380 4.9026461634 -0.4145087284
C 1.9377972857 0.0003060907 -0.0739613563
N 3.0995429236 0.0005222728 -0.0395140975
C 4.5309599244 -0.0000102828 -0.0076448659
H 4.9020484979 -0.8365887470 -0.6043582043
H 4.8656906190 -0.1081851870 1.0267885937
H 4.8995355390 0.9429880921 -0.4181311296
C 0.0008830726 -1.9405074989 -0.0716933524
N 0.0008652654 -3.1018378262 -0.0402168614
C 0.0001096825 -4.5324483551 -0.0040995918
H -0.8359586719 -4.9056152362 -0.6002460006
H -0.1074409244 -4.8638533438 1.0312506313
H 0.9424997363 -4.9025867883 -0.4145656879
C -1.9376600046 -0.0003445781 -0.0733374127
N -3.0995420690 -0.0007219097 -0.0384854277
C -4.5308571076 0.0007476876 -0.0073520125
H -4.9066258201 -0.6062682581 -0.8344619981
H -4.8911729519 1.0273789215 -0.1055970410
H -4.8692403686 -0.4207712045 0.9422148226
C -0.0002544027 0.0003921402 -1.9955720267
N -0.0004400049 0.0006488792 -3.1575010262
C -0.0000435653 -0.0000504510 -4.5882468615
H -0.6060584604 -0.8357677460 -4.9464830999
H 1.0266904214 -0.1078149314 -4.9462461280
H -0.4202015576 0.9424308786 -4.9477318527
