151
# extracted from Terachem optimization
Fe -0.0788399582 -0.0034649701 0.0074508514
C 0.1717343420 1.8762134504 0.3194978752
N 0.3084274959 3.0207647221 0.5002522993
C 0.4509373407 4.3856545930 0.7192446754
C -0.4567143629 5.0504104190 1.5547294359
C -0.3065516881 6.4149682123 1.7604314966
C 0.7309924946 7.1526345055 1.1571631923
C 0.8427098137 8.6640566320 1.4129144635
C -0.4445122576 9.3568095430 0.9013166129
C 0.9955566020 8.9159830522 2.9327336725
C 2.0512158456 9.2917949676 0.6932533290
C 1.6226167234 6.4515454965 0.3293437623
C 1.4941855305 5.0830396558 0.1040851697
H -1.2624278552 4.5001089387 2.0302466772
H -1.0182083933 6.9180605268 2.4065457291
H -0.5707316060 9.2100421378 -0.1772323973
H -0.3890471145 10.4340610691 1.0917750745
H -1.3425049339 8.9780284701 1.4006027053
H 1.8983777795 8.4349380181 3.3251734565
H 0.1380095689 8.5440208287 3.5031933939
H 1.0753151426 9.9915517153 3.1237499639
H 3.0007872200 8.8637662866 1.0343887945
H 2.0831989955 10.3653602984 0.9037590873
H 1.9883921066 9.1762889465 -0.3949122359
H 2.4378646586 6.9742767823 -0.1559155832
H 2.1920215971 4.5592851108 -0.5415845578
C 1.7923561464 -0.2987397118 0.2898245098
N 2.9326003535 -0.4662700075 0.4731037598
C 4.2909873541 -0.6516758741 0.7002781994
C 4.7883724696 -1.9418944507 0.9265801537
C 6.1468232761 -2.1086457755 1.1580672965
C 7.0424176310 -1.0210320085 1.1738963486
C 8.5367818788 -1.2639700233 1.4394791473
C 8.7029949326 -1.9260621877 2.8290883163
C 9.0984456619 -2.2066373090 0.3471399430
C 9.3535452607 0.0425169092 1.4211025709
C 6.5071859887 0.2563285628 0.9411461139
C 5.1485327248 0.4518368720 0.7055653236
H 4.1150446781 -2.7931515398 0.9218796005
H 6.5174693539 -3.1133214886 1.3321875968
H 8.3194395193 -1.2777897699 3.6248236458
H 9.7638346357 -2.1125812741 3.0281569763
H 8.1804111206 -2.8861614972 2.8928495212
H 8.9937929368 -1.7642517831 -0.6497615508
H 8.5933717592 -3.1782662565 0.3408140773
H 10.1634309131 -2.3903107121 0.5256973591
H 9.3030782347 0.5444393789 0.4481510732
H 10.4064320476 -0.1836040472 1.6158454509
H 9.0219653862 0.7449415811 2.1941145979
H 7.1540960646 1.1249918415 0.9427729213
H 4.7537763622 1.4473814958 0.5295909730
C -0.3391476398 -1.8750439571 -0.3252166843
N -0.4943455837 -3.0110753794 -0.5426872781
C -0.6727438128 -4.3640567160 -0.8052709026
C -1.9611455895 -4.8627031252 -1.0389917730
C -2.1218925512 -6.2164241669 -1.3004470160
C -1.0302128198 -7.1061081082 -1.3387236419
C -1.2670167700 -8.5956082581 -1.6350035151
C -2.2105005867 -9.1830161859 -0.5570729810
C -1.9243593714 -8.7358005931 -3.0296708784
C 0.0421253610 -9.4082313774 -1.6296831710
C 0.2451702497 -6.5695828858 -1.0990935366
C 0.4349496436 -5.2155762837 -0.8341131125
H -2.8157822666 -4.1941482358 -1.0151556557
H -3.1252333800 -6.5882099705 -1.4795093028
H -1.7727970814 -9.0940678462 0.4433742227
H -2.3868597964 -10.2456395573 -0.7559588791
H -3.1852217886 -8.6841339187 -0.5453969063
H -1.2748229620 -8.3340628295 -3.8153519448
H -2.8859819573 -8.2150591302 -3.0862243431
H -2.1067119765 -9.7930156284 -3.2508602654
H 0.7449329213 -9.0602000531 -2.3951310981
H -0.1802437371 -10.4579745079 -1.8447295024
H 0.5423581340 -9.3746678266 -0.6551225059
H 1.1168033466 -7.2121956883 -1.1173611738
H 1.4291090724 -4.8200342745 -0.6519698621
C -1.9467119301 0.3060799465 -0.2776542777
N -3.0847426899 0.4958016741 -0.4527478152
C -4.4394459432 0.7205775873 -0.6659322803
C -4.8493305059 1.8312140876 -1.4154708050
C -6.2060687187 2.0381718071 -1.6243475576
C -7.1843357003 1.1663473835 -1.1066402967
C -8.6726610404 1.4399071108 -1.3753434579
C -9.0483794697 2.8256565192 -0.7952533387
C -8.9190809813 1.4363395647 -2.9040147171
C -9.5883039800 0.3806651451 -0.7333587674
C -6.7352916244 0.0666673302 -0.3576454136
C -5.3804846080 -0.1647181442 -0.1327693265
H -4.1111912759 2.5145195347 -1.8232866224
H -6.5093858906 2.9011461890 -2.2075442066
H -8.8870806314 2.8585056502 0.2879839145
H -10.1069117689 3.0325758980 -0.9858229841
H -8.4668173524 3.6350322797 -1.2490328140
H -8.6695174189 0.4641242858 -3.3438209252
H -8.3299505177 2.2025477219 -3.4189187042
H -9.9754383162 1.6386748419 -3.1114674566
H -9.3883136702 -0.6252887792 -1.1198814281
H -10.6322645273 0.6151152433 -0.9631260449
H -9.4921654428 0.3600196911 0.3582538356
H -7.4489884928 -0.6312442482 0.0628695994
H -5.0529603876 -1.0207702809 0.4486688504
C -0.3839588383 -0.2857299213 1.8807153576
N -0.5433677059 -0.4681762092 3.0220881698
C -0.6935820956 -0.6923396016 4.3853700307
C 0.4264131805 -0.6116407223 5.2239069427
C 0.2683114278 -0.8481970330 6.5822227762
C -0.9832905137 -1.1684628790 7.1447478485
C -1.0953850249 -1.4376831923 8.6535615849
C -0.1972638219 -2.6464232430 9.0155692616
C -0.6163652092 -0.1877677444 9.4315231602
C -2.5382575485 -1.7579178709 9.0868176000
C -2.0830799305 -1.2336738648 6.2740546745
C -1.9528674294 -1.0002954607 4.9069172100
H 1.3995828030 -0.3689484524 4.8091941308
H 1.1438907098 -0.7833011447 7.2195007816
H -0.5200400776 -3.5512238973 8.4884150232
H -0.2541832266 -2.8441342093 10.0914762220
H 0.8542236087 -2.4677548904 8.7673134866
H -1.2377493320 0.6849123067 9.2014802457
H 0.4235980425 0.0666750912 9.2024063810
H -0.6800025163 -0.3734075661 10.5091305716
H -3.2233227542 -0.9268212621 8.8838358958
H -2.5608038634 -1.9426460121 10.1652791735
H -2.9256976905 -2.6572230064 8.5945744122
H -3.0674536866 -1.4724519113 6.6579723028
H -2.8150052821 -1.0576720906 4.2501283769
C 0.2542920161 0.2560468862 -1.8721854617
N 0.4651481888 0.2984968763 -3.0424247498
C 0.7472151969 0.2992410231 -4.3405408841
C 2.1525368907 0.3347634657 -4.8309130377
C 2.3241720787 1.3094009088 -5.9142923467
C 1.3584183548 1.1505815998 -7.0417438277
C 1.8303609106 1.3039202880 -8.4774412641
C 2.4175304016 2.7293573125 -8.6619169183
C 2.9530761532 0.2649098416 -8.7363961879
C 0.6956294425 1.0922138563 -9.4954332292
C 0.0416777788 0.7788886982 -6.6504054582
C -0.2929737698 0.3618559418 -5.3686648562
H 2.7200857428 -0.5981876551 -4.8239694965
H 2.6981266657 2.3080914988 -5.6801573855
H 1.6609924431 3.5006273701 -8.4793205315
H 2.7773771740 2.8461290504 -9.6898765427
H 3.2644611296 2.9072545415 -7.9912903248
H 2.5738453054 -0.7592058520 -8.6495056930
H 3.7799378051 0.3880082595 -8.0283124266
H 3.3531366376 0.3948506730 -9.7478219242
H 0.2625293040 0.0882807117 -9.4220621705
H 1.0882962863 1.2062698721 -10.5107045555
H -0.1070546070 1.8285005232 -9.3721145782
H -0.7468811241 0.7828922869 -7.3970322757
H -1.3053319025 0.0564210940 -5.1256921361
