27
# extracted from Terachem optimization
Fe 0.0000350785 -0.0000561893 0.0108496467
C 0.0269154461 1.9741633764 -0.0631527640
O 0.0693212004 3.0955670678 -0.1451184580
C 1.9716882533 0.0371834706 0.0915691576
O 3.0923982278 0.0822063016 0.1831688684
C -0.0268922476 -1.9742433243 -0.0631526348
O -0.0692850280 -3.0955885481 -0.1449986097
C -1.9716741419 -0.0371240373 0.0915221389
O -3.0925198217 -0.0820851632 0.1830941129
O -0.0002378976 -0.0001428478 2.1951534017
C -0.5540243749 0.9732544590 3.0516116038
C -0.3493022372 0.6176235001 4.3587996157
C 0.3492469056 -0.6178193251 4.3587804120
C 0.5539633984 -0.9733947167 3.0516137306
H -1.0417260675 1.8164184915 2.5837304732
H -0.6705450597 1.1906064137 5.2223110141
H 1.0417324332 -1.8164762566 2.5836624412
H 0.6702878388 -1.1909414617 5.2222772210
O 0.0000929112 0.0002480005 -2.2089058598
C -1.0441497125 0.3985991997 -3.0662799089
C -0.6631351098 0.2493158097 -4.3763023068
C 0.6633156820 -0.2492269396 -4.3762822152
C 1.0442668542 -0.3985242116 -3.0662803208
H -1.9526333976 0.7517431075 -2.5997802923
H -1.2807843249 0.4765076165 -5.2391030556
H 1.9526888515 -0.7517489058 -2.5997241049
H 1.2810863402 -0.4761738899 -5.2390632531
