62
# extracted from Terachem optimization
Fe 0.0130673068 0.0020906168 0.1374260529
C 0.0879395906 -0.0678107942 -2.1560218198
N 0.0850302954 -0.1943134163 -3.3102990686
C 0.0647161596 -0.3443426983 -4.7388725567
H -0.5692025474 -1.1963875720 -4.9970700014
H 1.0837252122 -0.5191202989 -5.0929845700
H -0.3350672296 0.5700931149 -5.1840825823
C -0.5061924708 4.9888810848 -0.1242642485
C -1.1762550500 4.2328878929 0.8409652671
C -1.0125123649 2.8539354210 0.8511313232
N -0.2224083160 2.2008505001 -0.0359109680
C 0.4100329088 2.9403847020 -0.9762638595
C 0.2984774740 4.3233602949 -1.0507831256
H -0.6129366967 6.0693118697 -0.1565467161
H -1.8189106357 4.7015057336 1.5797173450
H -1.5219943094 2.2467831414 1.5882968523
H 1.0172335923 2.4068844675 -1.6951702519
H 0.8367971329 4.8640598278 -1.8223658448
C 5.0765135153 -0.0919241256 0.1396993731
C 4.3337793650 -0.6667450557 1.1730291928
C 2.9474410468 -0.5997886990 1.1286426012
N 2.2709670011 0.0003541978 0.1167127876
C 3.0007749754 0.5366106813 -0.8898311991
C 4.3902152596 0.5164922177 -0.9128119378
H 6.1619794954 -0.1248334099 0.1513501803
H 4.8179652683 -1.1647577075 2.0065103878
H 2.3532755185 -1.0492261734 1.9136884488
H 2.4528185465 0.9812506878 -1.7101726670
H 4.9209853387 0.9665070925 -1.7450864031
C -0.1242145419 -4.9631490206 -0.4834450400
C -1.2663166909 -4.2657059098 -0.0831056952
C -1.1965300356 -2.8875972268 0.0754009226
N -0.0543559338 -2.1848052752 -0.1284316715
C 1.0464801304 -2.8667904278 -0.5308506025
C 1.0505583468 -4.2434484054 -0.7131362067
H -0.1520183288 -6.0402169362 -0.6200652282
H -2.2042044871 -4.7783367229 0.1029033516
H -2.0651683352 -2.3156148196 0.3721058171
H 1.9369724464 -2.2802538398 -0.7097446835
H 1.9636171609 -4.7376998300 -1.0284006247
C -5.0317674872 0.2290245092 0.1726732855
C -4.3276587704 0.0939251985 1.3713398148
C -2.9411312324 0.0149050606 1.3335748548
N -2.2333842673 0.0619551291 0.1777852892
C -2.9236703304 0.2038425329 -0.9775275175
C -4.3104471423 0.2859445382 -1.0211616031
H -6.1160841399 0.2900318759 0.1702197353
H -4.8418244872 0.0503525766 2.3258212810
H -2.3682851306 -0.0909085988 2.2459363391
H -2.3391563916 0.2491371939 -1.8869584749
H -4.8120045193 0.3934722916 -1.9770783187
C 0.5296018695 0.0603689167 5.0513173260
C 0.9478546327 1.1400312742 4.2684164324
C 0.7745446905 1.0843298168 2.8915902924
N 0.2031317311 0.0205611076 2.2744717986
C -0.1755850272 -1.0376010245 3.0356795773
C -0.0346300246 -1.0504787977 4.4170196668
H 0.6494079648 0.0800291556 6.1307133527
H 1.4087139679 2.0159461817 4.7132310698
H 1.1129084724 1.8920410909 2.2537285541
H -0.5963298406 -1.8865330506 2.5101552435
H -0.3598235967 -1.9184150637 4.9806317892
