38
# extracted from Terachem optimization
Fe -0.0002668098 0.0012422104 0.4122286353
C 0.0007225035 0.0014225805 -2.2407924259
O -0.0023157023 0.0015518736 -3.3716793593
C 0.0198560703 2.2259988287 0.0490415160
N 0.0268083819 3.3656632089 -0.1820897401
C 0.0357071512 4.7669724649 -0.4729607240
H 0.8635253573 4.9849501498 -1.1517535186
H 0.1645478210 5.3237390658 0.4582935290
H -0.9127057023 5.0410591271 -0.9409695635
C 2.2155733581 -0.0165219762 0.1447911019
N 3.3719756488 -0.0133061777 0.0268217631
C 4.7945531333 -0.0056833007 -0.1252996021
H 5.0887322610 -0.8309016139 -0.7781125364
H 5.2604366771 -0.1251523241 0.8559066015
H 5.1019147413 0.9447052398 -0.5679164990
C -0.0205620501 -2.2234314682 0.0489612957
N -0.0275264722 -3.3630900229 -0.1821939010
C -0.0357407843 -4.7647244433 -0.4724404226
H -0.8634790553 -4.9834517821 -1.1512481265
H -0.1643724241 -5.3210666537 0.4592353704
H 0.9130373824 -5.0383233399 -0.9402506566
C -2.2159080009 0.0172266644 0.1419454698
N -3.3720939386 0.0121303116 0.0220486940
C -4.7945490426 0.0016624031 -0.1326335596
H -5.0547542596 -0.6229008129 -0.9907347447
H -5.1451490669 1.0230635935 -0.2982024759
H -5.2505408638 -0.4053384981 0.7732189074
C 0.0001133188 0.0002247410 5.3414149780
C -0.1780515838 1.1881074989 4.6308274661
C -0.1748877113 1.1463685198 3.2425332323
N 0.0002902814 0.0009655313 2.5467486339
C 0.1752967276 -1.1448165761 3.2419895840
C 0.1784301386 -1.1872778207 4.6302259821
H 0.0002775373 -0.0002929129 6.4271164530
H -0.3184319534 2.1349053493 5.1409000218
H -0.3164350279 2.0478907784 2.6574648495
H 0.3170982190 -2.0456570317 2.6559841501
H 0.3182988079 -2.1346691509 5.1393182879
