53
# extracted from Terachem optimization
Fe -0.0083824142 0.0063778074 -0.0002892150
C 4.5270801783 -0.3843374834 -0.6065873982
C 4.8556687311 0.8533992577 -1.1195618902
C 3.8610270398 1.8521150677 -1.2205639507
C 4.1555149216 3.1694112493 -1.7039972288
C 3.1929865090 4.1309344544 -1.7323557603
C 1.8624174129 3.8501067385 -1.2777507363
C 0.8615307586 4.8468125191 -1.2359291702
C -0.3899917164 4.5324983893 -0.7488194804
C -0.6377554259 3.2140834127 -0.3347190230
N 0.2664399242 2.2361135025 -0.3857252511
C 1.5200263018 2.5446385198 -0.8302822472
C 2.5422287747 1.5218670509 -0.8039185680
N 2.2196125809 0.2784984380 -0.3396892364
C 3.1962116845 -0.6231860194 -0.2297066595
H 5.2692354331 -1.1667961256 -0.4916514666
H 5.8720969996 1.0761033468 -1.4317073711
H 5.1669918417 3.3876979875 -2.0328673743
H 3.4203772182 5.1323890856 -2.0848872120
H 1.0927129837 5.8532019162 -1.5733577005
H -1.1764707336 5.2762309749 -0.6810910679
H -1.6117827548 2.9542916997 0.0630310626
H 2.9226846568 -1.5848692843 0.1884219416
C -4.5344374449 0.3889805534 0.7473871493
C -4.8489612004 -0.8622864254 1.2350161449
C -3.8524034322 -1.8633044136 1.2773138326
C -4.1334293371 -3.1936156711 1.7325468527
C -3.1720398863 -4.1562950938 1.7046595632
C -1.8547408980 -3.8622693745 1.2209556794
C -0.8562635814 -4.8571732600 1.1201620728
C 0.3813925401 -4.5290937751 0.6066710096
C 0.6204244646 -3.1984521791 0.2291011641
N -0.2810007679 -2.2215932703 0.3389129342
C -1.5243119468 -2.5437251578 0.8036597765
C -2.5468713419 -1.5213059371 0.8297506919
N -2.2381032776 -0.2679207617 0.3847682277
C -3.2159447290 0.6363883090 0.3333109517
H -5.2780520551 1.1755376897 0.6792697769
H -5.8554066337 -1.0931835810 1.5724707768
H -5.1349199388 -3.4206956955 2.0851754085
H -3.3904641465 -5.1675724715 2.0340489107
H -1.0790978115 -5.8734085389 1.4328407722
H 1.1636471786 -5.2714777109 0.4918272560
H 1.5820292035 -2.9253497942 -0.1894936952
H -2.9559579024 1.6102138489 -0.0648033625
N 0.2817130093 0.3464481534 2.1825872878
H -0.1816711204 1.1936609901 2.5143403266
H -0.0475332593 -0.4192589135 2.7721187315
H 1.2760783660 0.4650196931 2.3817813323
N -0.3477771740 -0.2843442347 -2.1833147389
H -1.1951928244 0.1782408375 -2.5156450806
H 0.4179593172 0.0451741688 -2.7726507618
H -0.4655417553 -1.2788946472 -2.3820537519
