18
# extracted from Terachem optimization
Fe -0.0082504357 -0.0101804056 -0.0291986849
C -0.3649031337 -0.3788305642 -2.3461200443
O -0.5655685080 -0.5775723896 -3.4375529213
O 0.3092410966 2.0522850992 -0.2953290248
H 1.1674391547 2.4509656957 -0.5237356101
H -0.3788321601 2.7241424807 -0.4493625352
O 2.0900876665 -0.3081194294 -0.2825911430
H 2.5767900011 -0.4600659754 -1.1118426041
H 2.7393805568 -0.3777728264 0.4392996813
O -0.2713241413 -2.0592761904 0.3570445341
H 0.3693335944 -2.7712775375 0.1788104930
H -1.1509494903 -2.4710785097 0.4363731732
O -2.0691822215 0.2748348413 0.3354663215
H -2.3279992406 0.4422733376 1.2588896048
H -2.8640162958 0.3604815549 -0.2193136038
O 0.0986877416 0.3228859523 2.1352396245
H 0.3728773997 1.1634224222 2.5411919903
H 0.2771891688 -0.3771179746 2.7870575490
