46
# extracted from Terachem optimization
Fe 0.0658238022 -0.0890853561 -0.1937941453
O -0.1091734578 -0.0069926929 1.9373400770
H 0.1568797431 0.7842358029 2.4415222530
H -0.9499759096 -0.3096616381 2.3287048287
C 0.0250303023 0.0240879550 -2.3608830013
N 0.0009206503 0.1354399457 -3.5160439756
C -0.0233915634 0.2868786226 -4.9411497306
H -0.8479750766 -0.3030107715 -5.3482401343
H 0.9265838550 -0.0653110066 -5.3508213879
H -0.1623009035 1.3440682761 -5.1799419428
O 0.1028234745 2.1668683373 -0.1036399059
C -0.7943207519 3.1037611754 -0.6194477202
C -0.4661069699 4.3386849786 -0.1794551260
C 0.6982010945 4.1965608483 0.6558717075
C 1.0135030210 2.8822634444 0.6801884854
H -1.5746175541 2.7058270726 -1.2484153772
H -0.9817148745 5.2579436474 -0.4208569924
H 1.8244239533 2.3068622659 1.0999983809
H 1.2343491239 4.9895150888 1.1593933833
O 2.2605622706 -0.0830974945 -0.0408326190
C 2.9973273790 -0.3564118675 1.1199081009
C 4.2970665429 -0.0581031704 0.9103953348
C 4.4120850529 0.4290442748 -0.4409042436
C 3.1762307021 0.4022395164 -0.9816859014
H 2.4409882742 -0.7719589670 1.9434242019
H 5.0987359248 -0.1766104247 1.6262336241
H 2.7650954915 0.6607194104 -1.9433811070
H 5.3169279840 0.7496153931 -0.9385232961
O 0.1081302163 -2.2840533179 -0.0798806186
C 0.1718008222 -3.0492039648 1.0902505317
C -0.0706715076 -4.3446226727 0.8007979450
C -0.2966893872 -4.4285255932 -0.6197994510
C -0.1783209856 -3.1793061510 -1.1170510070
H 0.4141611619 -2.5056650889 1.9871795665
H -0.0830970099 -5.1637445156 1.5063695249
H -0.2248170902 -2.7469793154 -2.1028090513
H -0.5116228769 -5.3224415954 -1.1891137951
O -2.1907414252 -0.0819222042 -0.1387887781
C -3.0319277153 -1.0581253689 -0.6800802361
C -4.3090887622 -0.8093930448 -0.3196092975
C -4.2984315853 0.3796414913 0.4935742233
C -3.0141023856 0.7876488939 0.5875137093
H -2.5424372823 -1.8369362713 -1.2420458552
H -5.1730282368 -1.4003247341 -0.5916324725
H -2.5197135044 1.6345063444 1.0354148177
H -5.1540581309 0.8641757530 0.9442240195
