39
# extracted from Terachem optimization
Fe 0.0016829227 -0.0035056148 -0.3064541644
O 0.0026919391 -0.0073317459 2.0167545183
H 0.7619411432 0.1595973713 2.5989566968
H -0.7720876051 -0.0935033817 2.5960084942
C 0.0025338027 2.2410072021 -0.0202509321
N 0.0052588437 3.3822686694 0.2054489182
C 0.0084169662 4.7866992504 0.4787741911
H 0.8474544270 5.2522786964 -0.0439537802
H 0.1133250264 4.9418246168 1.5553410313
H -0.9322021880 5.2220754126 0.1329524401
C 2.2380836453 -0.0019661677 -0.1066338285
N 3.3992699323 -0.0035081369 -0.0425238122
C 4.8278419987 -0.0079112719 0.0321081936
H 5.2156903280 -0.8324683723 -0.5705717137
H 5.1294016537 -0.1378664528 1.0743647102
H 5.2111771022 0.9413842836 -0.3493186818
C -0.0010079059 -2.2437351440 -0.0209241310
N -0.0043770815 -3.3848241559 0.2050553166
C -0.0079435148 -4.7886012443 0.4806072439
H -0.8471878562 -5.2550446484 -0.0410456092
H -0.1127708934 -4.9411501241 1.5574458463
H 0.9325673454 -5.2249422149 0.1357053242
C -2.2367997716 -0.0017326342 -0.1051941025
N -3.3981133492 -0.0005867513 -0.0428183125
C -4.8268989769 0.0035742970 0.0279875350
H -5.2273903753 -0.6094463253 -0.7827669752
H -5.1885028296 1.0296669367 -0.0709525253
H -5.1379368227 -0.4090762495 0.9908035856
C -0.0003836208 -0.0003136788 -5.2686793409
C -0.0447917992 1.1994287114 -4.5575543278
C -0.0393758802 1.1556157432 -3.1692781980
N -0.0002691219 -0.0017033072 -2.4728076200
C 0.0387529449 -1.1583684364 -3.1704313048
C 0.0440324908 -1.2007884863 -4.5587614858
H -0.0002887815 0.0003354392 -6.3540020191
H -0.0827706974 2.1567834814 -5.0665158703
H -0.0661527242 2.0674049511 -2.5846752876
H 0.0654646313 -2.0707458832 -2.5867321317
H 0.0818967081 -2.1575402818 -5.0688859038
