47
# extracted from Terachem optimization
Fe -0.0019641928 0.0036939388 0.0098339615
C 0.2063797690 1.9289775610 -0.0020381829
N 0.3491476707 3.0841406639 -0.0133681508
C 0.5426248647 4.5010484861 -0.0276970976
H 1.2849934269 4.7551764827 -0.7881920490
H 0.8954840501 4.8259761802 0.9542292356
H -0.4046133849 4.9941078870 -0.2594881305
C 1.9323401525 -0.1246459835 0.0040514773
N 3.0954802459 -0.1702026878 0.0029676726
C 4.5255977510 -0.2001504617 0.0064769082
H 4.8714359113 -1.0761240946 -0.5478826107
H 4.8814776140 -0.2536663017 1.0385265055
H 4.9052174753 0.7083895769 -0.4674883182
C -0.2101105916 -1.9214537816 0.0090537884
N -0.3519574807 -3.0766634994 -0.0073024345
C -0.5410054629 -4.4940132137 -0.0378655851
H -1.2838346089 -4.7405401241 -0.8003701718
H -0.8913812086 -4.8330636790 0.9400941612
H 0.4073926373 -4.9812877378 -0.2774019838
C -1.9369586383 0.1300407801 0.0148019606
N -3.1003186511 0.1689188992 0.0143797091
C -4.5304263735 0.1880933390 0.0096718210
H -4.8948505234 -0.4153990726 -0.8252225037
H -4.8796123725 1.2173890714 -0.1012742972
H -4.8991326331 -0.2267119045 0.9510420736
C -0.0106383578 -0.0061290518 4.8981783607
C -0.7885442330 0.9043690907 4.1840465104
C -0.7515748623 0.8803187027 2.7942197617
N 0.0048781436 0.0097038986 2.0926625521
C 0.7571090861 -0.8655062591 2.7929859042
C 0.7787674001 -0.9054095039 4.1825541227
H -0.0190555609 -0.0145736328 5.9835909460
H -1.4183580763 1.6279626058 4.6908670721
H -1.3451927078 1.5788770143 2.2163431272
H 1.3580907438 -1.5566714484 2.2142752544
H 1.4053286604 -1.6328848479 4.6877546058
C 0.0167112076 0.0042058341 -4.8804674162
C 0.7894504304 -0.9072343797 -4.1617653136
C 0.7477520521 -0.8804148776 -2.7723276198
N -0.0073177109 -0.0058873921 -2.0743275661
C -0.7538405497 0.8707039859 -2.7786775892
C -0.7705484868 0.9083731630 -4.1684344735
H 0.0272984696 0.0093088960 -5.9660438349
H 1.4200433848 -1.6334556368 -4.6637807236
H 1.3362709704 -1.5807994754 -2.1917944935
H -1.3543710658 1.5652369893 -2.2036532475
H -1.3925956070 1.6382646541 -4.6757467972
