50
# extracted from Terachem optimization
Fe 0.0208548985 -0.0057205413 -0.1042315094
C 0.2174493339 0.0105826601 -1.9070436928
O 0.3477809176 0.0016581385 -3.0407450322
O -0.1790319177 -0.0460442807 1.9852262031
H 0.1652570017 -0.8017375166 2.4909786614
H -1.0564428988 0.1479444625 2.3590219435
C -0.0080481293 4.8530174854 0.1374550927
C 0.5984669183 4.0825035727 1.1293569930
C 0.5797175538 2.6962522668 1.0166605818
N -0.0130002724 2.0542145583 -0.0154427398
C -0.6073085070 2.8088978706 -0.9687317385
C -0.6212204287 4.1980729149 -0.9316209153
H -0.0038493553 5.9370590310 0.1962454766
H 1.0871244837 4.5424748930 1.9817578585
H 1.0479867796 2.0693255133 1.7646714869
H -1.0912911042 2.2779915246 -1.7812463164
H -1.1067735974 4.7488905957 -1.7302664294
C 4.8540558459 0.1367940749 0.4853302855
C 4.0775634234 -0.7755492271 1.2005082987
C 2.7027195213 -0.7956069349 0.9961560746
N 2.0703087659 0.0406014661 0.1448310467
C 2.8315581556 0.9257182215 -0.5384840090
C 4.2127915600 1.0008289651 -0.4021777765
H 5.9313049201 0.1715311490 0.6158470988
H 4.5242549849 -1.4699260296 1.9041947545
H 2.0858063701 -1.5209034812 1.5137070248
H 2.3086254067 1.5964800093 -1.2096030677
H 4.7678410749 1.7277811606 -0.9858855866
C 0.0320481621 -4.8837916800 -0.0504598806
C -0.8588200454 -4.1573815004 0.7408725215
C -0.8237305275 -2.7682546536 0.6936617651
N 0.0429794158 -2.0777284398 -0.0813128727
C 0.9054335171 -2.7918608713 -0.8400845828
C 0.9299536986 -4.1819401485 -0.8545032469
H 0.0249774888 -5.9693138249 -0.0409460403
H -1.5796463190 -4.6547611091 1.3812442267
H -1.5194321278 -2.1777546708 1.2781362821
H 1.6014159703 -2.2244534143 -1.4464106222
H 1.6431886520 -4.6969015016 -1.4892776554
C -4.8429227968 -0.0197375955 -0.3465557979
C -4.1645349271 0.8389060118 0.5193800874
C -2.7751038442 0.8272880684 0.5265356369
N -2.0391001925 0.0015293038 -0.2524950338
C -2.7058054182 -0.8217699198 -1.0916305916
C -4.0941676452 -0.8578292633 -1.1721602081
H -5.9277229873 -0.0288422884 -0.3822631767
H -4.6986493860 1.5181635512 1.1752126651
H -2.2241452307 1.5224060450 1.1516209246
H -2.1022121921 -1.4741825901 -1.7114964650
H -4.5718608265 -1.5349279382 -1.8724748820
