31
# extracted from Terachem optimization
Fe -0.0000167262 -0.0001289904 0.0009249740
C 0.3983339812 1.8812425390 -0.1216064578
O 0.6451656932 2.9737911593 -0.2615163183
C 1.8976889130 -0.3293593122 0.1034630508
O 3.0053155101 -0.5154154847 0.2127640624
C -0.3980007986 -1.8809113526 -0.1212839274
O -0.6452440826 -2.9734969419 -0.2606985572
C -1.8973259116 0.3294543762 0.1031632486
O -3.0051384755 0.5151634655 0.2120507910
C -0.0003639408 0.0005479271 4.9886805821
C -0.2512988469 1.1651442689 4.2639382001
C -0.2467746942 1.1248333004 2.8449772588
N -0.0000528652 0.0002197503 2.1292600748
C 0.2464782841 -1.1242542099 2.8452263688
C 0.2509302375 -1.1641866343 4.2642413189
H -0.0005161053 0.0007098134 6.0754730050
H -0.4552934949 2.1132879603 4.7549069275
H -0.4594135209 2.0361207896 2.2977984104
H 0.4587095033 -2.0359486324 2.2984771538
H 0.4556491250 -2.1120233645 4.7555876116
C 0.0001699474 -0.0005590398 -4.9747468967
C 0.8895911650 -0.7943357152 -4.2508840866
C 0.8552122573 -0.7732956836 -2.8336856085
N 0.0000633323 -0.0002660949 -2.1205758406
C -0.8548759724 0.7727456753 -2.8339568440
C -0.8890218180 0.7935780161 -4.2510776239
H -0.0000598553 -0.0010137543 -6.0616183128
H 1.6134495056 -1.4378387325 -4.7439807488
H 1.5413506291 -1.4097496340 -2.2852601211
H -1.5412465799 1.4089902768 -2.2857022268
H -1.6123948637 1.4373438153 -4.7443391901
