25
# extracted from Terachem optimization
Fe -0.0428631210 0.0215947470 -0.0091766367
O -0.4397408502 1.9970310880 -0.3317295071
H -0.2012059104 2.4392365776 -1.1640827390
H -0.3589542522 2.6532940182 0.3806072005
O 1.9727793209 0.2697077558 0.2037585345
H 2.3273807533 1.1642821438 0.3465865365
H 2.3630750508 -0.2946702429 0.8952040991
O 0.3475833181 -1.9338087302 0.3883791537
H 0.6515347273 -2.4669046696 -0.3682463259
H -0.4250229149 -2.4089250540 0.7470788463
O -2.0145470411 -0.4161432126 -0.2463912297
H -2.6181937975 0.2716890667 0.0884137176
H -2.2947526969 -0.5780475670 -1.1649734571
C -0.3661514516 0.2620654877 1.9419211266
N -0.5586608194 0.3485208879 3.0841948936
C -0.8029328348 0.4285754201 4.4956763836
H -0.2544269371 -0.3741534072 4.9946245561
H -1.8749106759 0.3172290829 4.6765778552
H -0.4609771409 1.3988598774 4.8636280995
C 0.3162126204 -0.2428203173 -1.9534881395
N 0.5919484890 -0.3942120355 -3.0720954413
C 0.9658395079 -0.5811483992 -4.4448262204
H 0.4238469213 -1.4396115630 -4.8488591318
H 2.0426785072 -0.7607518930 -4.4936320031
H 0.7104609008 0.3191125534 -5.0091505566
