22
# extracted from Terachem optimization
Fe 0.0000431616 -0.0000170752 -0.0980998495
C 0.0138865530 1.9435709223 -0.1950379860
O 0.0202129693 3.0652433083 -0.2992215403
C 1.9495528263 -0.0049198964 -0.0790992957
O 3.0749914195 -0.0041290733 -0.0619407011
C -0.0138136013 -1.9436482094 -0.1946437273
O -0.0201457777 -3.0653069846 -0.2986315318
C -1.9494536570 0.0048556287 -0.0790178641
O -3.0748912004 0.0040079590 -0.0618945030
C 0.0000049425 -0.0001853755 -2.0308279640
O 0.0000089421 -0.0002210366 -3.1557403027
C -0.0002296363 0.0004898167 5.0779248259
C -0.1059595769 1.1788730715 4.3421227271
C -0.1076427416 1.1351962549 2.8889260474
N 0.0000347201 0.0001814470 2.1586679107
C 0.1076376242 -1.1346710563 2.8891975543
C 0.1056785667 -1.1780447771 4.3423981459
H -0.0003312615 0.0006054111 6.1666741048
H -0.1914797420 2.1548420472 4.8192786544
H -0.2032752368 2.0768954721 2.3582209914
H 0.2034415718 -2.0764667390 2.3587033240
H 0.1911541281 -2.1539060458 4.8197829660
