53
# extracted from Terachem optimization
Fe -0.0040446153 -0.0262068978 -0.1492861771
C -0.1834031387 -0.0504263156 2.3323414198
O -0.2208388804 -0.0741383217 3.4626242958
C 0.3184406451 -0.0268188441 -2.3565404402
N 0.5499755673 -0.0225637023 -3.4965953710
C 0.8427372406 -0.0180210044 -4.8971029774
H 0.3827949929 -0.8932299062 -5.3618840757
H 1.9262233245 -0.0542682813 -5.0354118835
H 0.4426985478 0.8950507496 -5.3444621862
C -0.2362176557 5.0378727913 0.0686922017
C 0.4471703453 4.3273193863 1.0564191563
C 0.5225541022 2.9422575606 0.9521528830
N -0.0374751863 2.2467959978 -0.0594947699
C -0.6979824064 2.9438017189 -1.0072847063
C -0.8204594061 4.3294677487 -0.9823744837
H -0.3100559827 6.1200003559 0.1166840465
H 0.9158049852 4.8324233983 1.8944977580
H 1.0601088410 2.3634896530 1.6976240636
H -1.1445880274 2.3611104231 -1.8072764136
H -1.3638703094 4.8392664297 -1.7708739644
C 4.9566043573 0.0194198397 0.5999759839
C 4.1686660494 -0.9508842444 1.2208159573
C 2.7945242840 -0.9340134022 1.0099870491
N 2.1846686221 -0.0142748698 0.2319557923
C 2.9544489399 0.9227224290 -0.3629640011
C 4.3350610619 0.9727619273 -0.2083334726
H 6.0325883906 0.0338848200 0.7437053253
H 4.6062823323 -1.7109830083 1.8589541380
H 2.1533995272 -1.6803279205 1.4673269208
H 2.4322834823 1.6523609671 -0.9729870182
H 4.9081842718 1.7448520878 -0.7109957640
C -0.2356512904 -5.0836898957 0.0313641212
C -1.0396789988 -4.3141734953 0.8737173954
C -0.9466041996 -2.9279877130 0.8046754800
N -0.1094475714 -2.2858707016 -0.0368367929
C 0.6650120535 -3.0402178465 -0.8443617121
C 0.6330262144 -4.4307193552 -0.8443703909
H -0.2876756826 -6.1681292276 0.0562509861
H -1.7308865466 -4.7747488295 1.5719353696
H -1.5722460855 -2.3020313125 1.4336750954
H 1.3329983475 -2.5002440775 -1.5079328371
H 1.2755773983 -4.9869504005 -1.5187093136
C -4.9978804918 0.1007130653 -0.3982495690
C -4.3191308970 0.9146932535 0.5101010644
C -2.9319753167 0.8439173413 0.5647969657
N -2.2102619795 0.0112089112 -0.2145917743
C -2.8745426807 -0.7788176679 -1.0841512859
C -4.2588210975 -0.7613546609 -1.2098849547
H -6.0804524356 0.1367176317 -0.4729466203
H -4.8517687921 1.5972569226 1.1636048964
H -2.3683349742 1.4766164987 1.2426535559
H -2.2676561420 -1.4452992501 -1.6882473810
H -4.7432397084 -1.4130701516 -1.9288572361
