42
# extracted from Terachem optimization
Fe -0.0028077548 0.0011099845 -0.0003316980
C 0.1551429903 1.9253590166 -0.0084201168
N 0.2578251635 3.0837575050 -0.0200583018
C 0.3950783296 4.5075921087 -0.0323450668
H 1.2932948345 4.7774152602 -0.5930551375
H 0.4816539012 4.8691806458 0.9952071763
H -0.4832275940 4.9516598967 -0.5073775498
C 1.9240741139 -0.1122687653 -0.0127740066
N 3.0860563850 -0.1547787342 -0.0336456654
C 4.5156916576 -0.1875057018 -0.0573263346
H 4.8478298706 -1.0202463423 -0.6820845780
H 4.8891365425 -0.3177230887 0.9613456875
H 4.8896298255 0.7538050608 -0.4675204613
C -0.1604471027 -1.9231040245 0.0054154810
N -0.2606724392 -3.0816744710 -0.0041131297
C -0.3913062367 -4.5057354012 -0.0250751098
H -1.2982204795 -4.7754000403 -0.5714969436
H -0.4564402534 -4.8775276765 1.0002837250
H 0.4801907644 -4.9403415161 -0.5206368161
C -1.9309144059 0.1170986114 -0.0078704155
N -3.0927679304 0.1604922740 -0.0331727038
C -4.5219110133 0.1938436497 -0.0701166719
H -4.8777852101 -0.5223684564 -0.8146165881
H -4.8537339722 1.1996068647 -0.3383086594
H -4.9137414167 -0.0739902619 0.9139897139
C -0.0047540986 -0.0064720402 -1.9116308301
N -0.0013649810 -0.0107979171 -3.0746874807
C 0.0104356216 -0.0122980796 -4.5046770341
H -0.7059585078 -0.7514379481 -4.8712297731
H 1.0134622326 -0.2666076007 -4.8558064817
H -0.2662707318 0.9801706770 -4.8685830075
C -0.0091298334 -0.0057851129 4.8985863470
C -0.8061843212 0.8879233358 4.1843978788
C -0.7699003511 0.8643647977 2.7946484724
N 0.0028582098 0.0075154920 2.0934645705
C 0.7738926388 -0.8518589756 2.7935285132
C 0.7982797736 -0.8889173843 4.1830410830
H -0.0154698821 -0.0130171630 5.9840101487
H -1.4491890124 1.6001841817 4.6902144026
H -1.3753400594 1.5530338846 2.2170702220
H 1.3896461381 -1.5306243997 2.2155021553
H 1.4427819695 -1.6003885842 4.6883501630
