49
# extracted from Terachem optimization
Fe -0.0014079730 -0.0060924233 -0.0228525648
C -0.0212192571 0.0701619753 2.1511780114
N -0.0138637370 0.0790471985 3.3117025696
C -0.0057105177 0.0823769788 4.7434253497
H 0.7162684216 -0.6582036052 5.0960157228
H -1.0053338257 -0.1705658043 5.1046790943
H 0.2776887092 1.0776821553 5.0940354654
C 0.0912496675 -0.0996763597 -2.1981290746
N 0.1708778689 -0.1309966091 -3.3556429439
C 0.2794841018 -0.1623489794 -4.7836708788
H 0.0083369200 -1.1597265194 -5.1378547444
H 1.3098151160 0.0681182233 -5.0653943612
H -0.3981796511 0.5822949651 -5.2086721150
O -0.0227515589 2.1905796996 -0.1089156802
C -1.0261455452 3.0126327939 0.4171664179
C -0.7027388428 4.3058728243 0.2075153975
C 0.5620649878 4.3241036634 -0.4842365537
C 0.9408591467 3.0409087149 -0.6624808481
H -1.8608626578 2.4988094595 0.8646178545
H -1.2901242359 5.1632783089 0.5054391435
H 1.7938961858 2.5539519555 -1.1061843784
H 1.1136473575 5.1975970566 -0.8031076829
O 2.2889437251 -0.0042119109 0.0238469052
C 3.1030396297 0.7702473091 0.8504686931
C 4.4019644756 0.5198226783 0.5740364153
C 4.4284850190 -0.4664680722 -0.4756753704
C 3.1446572112 -0.7564879595 -0.7812135652
H 2.5878691643 1.4265225196 1.5332438867
H 5.2559602594 0.9790370541 1.0526531461
H 2.6642744068 -1.4319133307 -1.4702354928
H 5.3058779157 -0.9004324864 -0.9345481909
O -0.0153277132 -2.2061749350 0.0702387179
C 0.8851996830 -3.0210954797 0.7651256599
C 0.4689396305 -4.3036427670 0.7043681756
C -0.7548155364 -4.3208636720 -0.0571251122
C -1.0191471370 -3.0480475253 -0.4207233981
H 1.7374307016 -2.5175684446 1.1908797123
H 0.9703644392 -5.1561672105 1.1412683688
H -1.8063543335 -2.5592517395 -0.9710984610
H -1.3554649322 -5.1874423467 -0.2962795136
O -2.2907127580 0.0088030771 -0.0650879763
C -3.1744996519 -0.4856276901 0.8965188712
C -4.4479358064 -0.2802924044 0.4942892802
C -4.3869719856 0.3799291994 -0.7845028157
C -3.0801256833 0.5360987983 -1.0883021751
H -2.7185279162 -0.9478581493 1.7568880705
H -5.3408726942 -0.5656976638 1.0331569982
H -2.5443790177 0.9820530529 -1.9100636080
H -5.2242129108 0.6966464991 -1.3908270495
