30
# extracted from Terachem optimization
Fe 0.0478313486 0.0095308452 0.0230303706
O 0.3845699105 2.0264808922 -0.0028149307
H 0.8441716094 2.4199714231 -0.7648216828
H -0.4701425045 2.4930409689 0.0626319285
O 2.0013859401 -0.4952075029 0.2971234416
H 2.6969211057 -0.2222925885 -0.3259083251
H 2.3306639577 -0.2969980934 1.1922123328
O -0.2934485831 -2.0095556435 0.0447096057
H 0.5545593422 -2.4714486706 0.1842859166
H -0.7096463871 -2.4410980910 -0.7211942455
O -1.9324369632 0.5063293003 -0.0620023026
H -2.4595030013 0.2837741523 0.7263462270
H -2.4894089740 0.3082432731 -0.8346206476
C 0.1738997620 -0.0532647925 -1.9554367867
N 0.1931864796 -0.0995382007 -3.1181385132
C 0.2070763531 -0.1711715500 -4.5514645364
H -0.4960370314 -0.9430684551 -4.8745452458
H 1.2158041935 -0.4243287787 -4.8862810816
H -0.0904560408 0.7971097137 -4.9612971774
C -0.1886960440 0.0758082707 4.8535683004
C 0.4728738390 1.0870703746 4.1549354087
C 0.4886902495 1.0493829913 2.7658113893
N -0.1065322189 0.0620927225 2.0525210879
C -0.7519022968 -0.9118882462 2.7378779627
C -0.8178394703 -0.9353004283 4.1265192320
H -0.2120476505 0.0737600723 5.9390877877
H 0.9704815215 1.9006629318 4.6721005199
H 0.9794512812 1.8254511991 2.1903457499
H -1.1999690520 -1.6989876442 2.1430289529
H -1.3456235467 -1.7420387255 4.6244806842
