22
# extracted from Terachem optimization
Fe 0.0066366520 -0.0104362380 -0.2060702674
O 0.3311120361 2.0560612849 0.2043365134
H 1.2632939459 2.3347167045 0.1652980544
H -0.2016213152 2.7999733307 -0.1276142296
O 2.1232909219 -0.1682410663 0.1078736672
H 2.8391272290 -0.4173011443 -0.5016364088
H 2.4203534731 -0.3748888374 1.0109694763
O -0.2914176075 -2.0782336691 0.2080941357
H 0.2576885747 -2.8154273205 -0.1129793933
H -1.2152124980 -2.3865079309 0.1902770734
O -2.0934746235 0.1653681452 0.1370723475
H -2.3420605238 0.3458802126 1.0601524107
H -2.8399906818 0.4222770825 -0.4311285208
O -0.0120896951 0.0139857791 2.1167760125
H 0.1141733429 0.7921728570 2.6873225378
H -0.0899816531 -0.7515853179 2.7120356554
C -0.0096705756 -0.0019565639 -2.3613024095
N -0.0282064365 0.0067630886 -3.5216821530
C -0.0527443683 0.0147645412 -4.9548974287
H -0.6912774207 -0.8015120035 -5.3024178146
H 0.9656278875 -0.1189416414 -5.3276041088
H -0.4535577882 0.9730687070 -5.2941935260
