48
# extracted from Terachem optimization
Fe -0.0026392966 -0.0042334110 -0.0896439389
C -0.0126373941 -0.0293242855 2.2654266944
O -0.0169235322 -0.0358129233 3.3935964685
O -0.0398198681 2.1992971345 -0.1147953442
C 0.2508286847 3.0970007656 0.9269874219
C 0.0065519584 4.3589018819 0.5167854327
C -0.4632226824 4.2848074689 -0.8449152955
C -0.4783596533 2.9825226251 -1.1961089367
H 0.6307485006 2.6610644225 1.8368447840
H 0.1460607932 5.2558011245 1.1049444122
H -0.7493758527 2.4334012733 -2.0828344919
H -0.7492841381 5.1160073236 -1.4749263481
O 2.1222281484 0.0185331005 0.0688683903
C 2.9278345283 -1.0449173960 0.5227575609
C 4.2010196210 -0.6204154801 0.6390818991
C 4.2342993874 0.7686048773 0.2490959879
C 2.9786898845 1.1279726847 -0.0847548476
H 2.4147395936 -1.9797832344 0.6737389975
H 5.0400009614 -1.2206510454 0.9636829159
H 2.5035106208 2.0325885119 -0.4256882243
H 5.1049582895 1.4100308875 0.2241441782
O 0.0336579922 -2.2190862326 -0.1837066179
C -0.1413176376 -3.1513602374 0.8520795109
C 0.0035028786 -4.4018617118 0.3661348763
C 0.2863897127 -4.2838561089 -1.0427828257
C 0.2973157975 -2.9688482346 -1.3435168542
H -0.3802885682 -2.7436547134 1.8210738804
H -0.0824759605 -5.3177763171 0.9350339404
H 0.4707058868 -2.3931932420 -2.2365443780
H 0.4594883827 -5.0948301900 -1.7370263092
O -2.1291100862 -0.0573526672 0.0637357942
C -2.9417110562 0.9533564291 0.6154245327
C -4.1897654382 0.4757265786 0.7881320008
C -4.1978307282 -0.8948635858 0.3357162205
C -2.9532239969 -1.1911033925 -0.0886147961
H -2.4549969202 1.9012228526 0.7742934270
H -5.0295809130 1.0283902328 1.1871116360
H -2.4700313852 -2.0600297304 -0.5029031748
H -5.0451509048 -1.5674129129 0.3303010509
O 0.0230729385 0.0217565471 -2.3045308412
C 1.1523747375 0.2133516457 -3.1147099023
C 0.7737894743 0.2676206199 -4.4090689511
C -0.6584657017 0.1095202240 -4.4448735938
C -1.0800359437 -0.0356997989 -3.1700824274
H 2.0917922729 0.2795306438 -2.5911610300
H 1.4313615716 0.4039676842 -5.2568060729
H -2.0342506144 -0.1894796459 -2.6917131787
H -1.2858842476 0.1037360666 -5.3257409590
