17
# extracted from Terachem optimization
Fe -0.0010182747 0.0024841262 -0.0012709888
C 0.3796601720 0.0024658599 2.3214358764
O 0.5624538665 -0.0013230938 3.4334203796
C -0.3803745484 0.0023817001 -2.3211155651
O -0.5636995485 -0.0016972506 -3.4330093723
O 0.0004633876 2.1068377442 -0.0001980807
H 0.7523611687 2.6867783513 -0.2219616303
H -0.7506663081 2.6877917691 0.2215038557
O 2.1279666969 -0.0026723058 -0.3554053051
H 2.5818991082 -0.0250469785 -1.2170808661
H 2.8281782723 0.0177479977 0.3217882183
O 0.0008374843 -2.1015397875 -0.0000646297
H 0.7525850855 -2.6809892726 -0.2236643600
H -0.7496556475 -2.6825622132 0.2236782013
O -2.1288637438 -0.0027753149 0.3560504929
H -2.5835259460 -0.0252606399 1.2174414027
H -2.8286013421 0.0173788613 -0.3215481183
