21
# extracted from Terachem optimization
Fe -0.0000008516 0.0001202404 0.0000014274
C 0.0000002076 1.9074968714 0.0000016717
O 0.0000011051 3.0364678183 -0.0000004494
C 1.9074473041 0.0000718121 0.0000169424
O 3.0364139203 0.0000225716 0.0000795737
C -0.0000006594 -1.9073929857 0.0000020822
O -0.0000004807 -3.0363655984 0.0000002998
C -1.9074480524 0.0000726184 -0.0000130819
O -3.0364123627 0.0000240641 -0.0000796321
C 0.0002115271 0.0003144207 1.9601486361
N 0.0003919301 0.0004833737 3.1164705770
C -0.0000466574 -0.0000788881 4.5539550771
H 0.6080543397 -0.8390381006 4.9016810785
H -1.0307018756 -0.1077774609 4.9013091069
H 0.4220800835 0.9458381794 4.9026981347
C -0.0002120836 0.0003143933 -1.9601607515
N -0.0003916163 0.0004831688 -3.1164583151
C 0.0000467388 -0.0000789420 -4.5539554496
H -0.6080538266 -0.8390375310 -4.9016840662
H 1.0307010855 -0.1077774931 -4.9013119194
H -0.4220797773 0.9458374561 -4.9027009551
