21
# extracted from Terachem optimization
Fe 0.0613771715 0.0011753289 -0.1441214078
C 0.0827394301 0.0042064021 2.3436800113
O 0.0812971810 0.0022840000 3.4723941355
O -0.0324356487 2.0811570980 0.2167380011
H 0.6972817236 2.7168504117 0.1074986266
H -0.8623041431 2.5897512452 0.1966959968
O 2.2116069031 -0.0025043859 0.0182174136
H 2.8403302729 -0.0111153400 -0.7248363207
H 2.7459100960 0.0018246082 0.8320483068
O -0.0364494108 -2.0798085326 0.2151281049
H 0.6961366326 -2.7150956292 0.1246333223
H -0.8647800597 -2.5897677661 0.1761054145
O -2.1402298042 0.0037744862 0.0616968229
H -2.6725948083 -0.0028925478 0.8766714455
H -2.7719583366 0.0093711979 -0.6782968648
C 0.0302601039 0.0002136436 -2.3027567853
N 0.0116661058 -0.0002617771 -3.4629086441
C -0.0142578890 -0.0019271472 -4.8967017363
H -0.6318106378 -0.8371399733 -5.2361766692
H 1.0067720453 -0.1141882167 -5.2691842454
H -0.4385579555 0.9440928834 -5.2421700002
