21
# extracted from Terachem optimization
Fe 0.1379768831 0.1342888140 -0.0285040907
C 0.4607302507 0.3954513898 1.9047456858
O 0.6522041735 0.5502528413 3.0067980506
O 0.5550855138 2.1092413096 -0.2590043047
H 0.6550977658 2.4718952970 -1.1575515166
H -0.0179130058 2.7355526789 0.2225381740
O 2.1165048174 -0.2823765408 -0.2105009471
H 2.4524150025 -0.6333864366 -1.0549503009
H 2.7194899325 0.4468255791 0.0305863630
O -0.2792169941 -1.8161320079 0.3735980598
H 0.4133000206 -2.3166004555 0.8460827337
H -0.5521834465 -2.3854455898 -0.3688623952
O -1.8133586288 0.5530399545 0.3409649565
H -2.2701980436 -0.1320642962 0.8654370568
H -2.3933262447 0.7342238286 -0.4206914110
C -0.1740413655 -0.1274182588 -1.9715463481
N -0.3412241961 -0.2915711373 -3.1090579101
C -0.5432895249 -0.4981998682 -4.5174078802
H -1.2433693617 -1.3259647713 -4.6553417168
H 0.4177797051 -0.7380270218 -4.9792728998
H -0.9524646141 0.4164148919 -4.9537047085
