52
# extracted from Terachem optimization
Fe 0.1451342972 -0.0488702956 0.1193180233
C 0.0263171641 0.0253806646 2.2788613528
N -0.0682612756 0.0585344991 3.4346380437
C -0.1873226186 0.0980437376 4.8664934075
H 0.4229537983 -0.7032633164 5.2913260194
H -1.2367672024 -0.0423185546 5.1380908894
H 0.1649892144 1.0700451369 5.2215614902
O 0.0661361442 2.1441099338 -0.0159358813
C 0.9251269552 3.0429623433 0.6308835086
C 0.5792372973 4.3156496015 0.3111827507
C -0.5455878033 4.2425417491 -0.5739567043
C -0.8334877821 2.9271014347 -0.7596351519
H 1.6979590982 2.6000459674 1.2392090412
H 1.0703829888 5.2134753184 0.6640645443
H -1.5775599401 2.3918783621 -1.3262927721
H -1.0749218416 5.0756882216 -1.0186909953
O 2.3769477818 -0.1197352453 0.0162354058
C 3.2683728743 -0.0414572993 1.0952698500
C 4.5430686501 -0.1883785296 0.6562235382
C 4.4825814509 -0.3744480798 -0.7632883232
C 3.1737233436 -0.3327933667 -1.1188874544
H 2.8186674966 0.0902303096 2.0660725502
H 5.4333527517 -0.1733503728 1.2713530069
H 2.6474212468 -0.4178919743 -2.0547122885
H 5.3184619941 -0.5265713571 -1.4338018397
O 0.0876003961 -2.2167663350 0.0418721610
C -0.7499879881 -3.0400258328 0.8175160730
C -0.5239701279 -4.3377949142 0.5035687131
C 0.4954236580 -4.3644228029 -0.5085686492
C 0.8448801996 -3.0814049942 -0.7677206151
H -1.3921442731 -2.5309281089 1.5182582222
H -1.0184680646 -5.1927497208 0.9466953535
H 1.5704156319 -2.6122429230 -1.4124308670
H 0.9192626828 -5.2434609079 -0.9771510667
O -2.2399924821 -0.0311168353 0.1085975993
C -3.0330167069 0.9129657822 0.7564619778
C -4.3521003743 0.6920514572 0.4723365360
C -4.4082580155 -0.4430079506 -0.3845848520
C -3.1210311633 -0.8567846056 -0.5843265353
H -2.5119087805 1.6328213916 1.3685031955
H -5.1879800173 1.2714829627 0.8437530922
H -2.6839707881 -1.6890836285 -1.1088646184
H -5.2946000714 -0.9078033025 -0.7960743629
O 0.1204773129 0.0153603972 -2.1798117224
C -0.6067092715 -0.8287708356 -3.0244566670
C -0.6262166378 -0.3198885688 -4.2880064928
C 0.1144482795 0.9001830052 -4.2609565228
C 0.5535525251 1.0784471522 -2.9826619135
H -0.9576336905 -1.7481003574 -2.5853050937
H -1.1032686177 -0.7722791345 -5.1480346927
H 1.1589875032 1.8259454538 -2.4948759746
H 0.3082859931 1.5609154156 -5.0963912145
