46
# extracted from Terachem optimization
Fe -0.0642398983 0.0775886585 -0.1893868231
O -0.3941523250 0.1907362077 1.8295223060
H 0.1438714444 0.7948287118 2.3694848800
H -1.3286890477 0.3708604900 2.0475895331
C 0.1965834093 -0.0178199350 -2.1147293656
N 0.3310086727 -0.0390950518 -3.2674087438
C 0.4987008043 -0.0551374649 -4.6906030197
H -0.2331593929 -0.7389836890 -5.1267712740
H 1.5115872815 -0.3908719298 -4.9255447047
H 0.3412039762 0.9548550411 -5.0771078585
O -0.0840116202 2.1438322637 -0.2558245961
C -0.8924883842 2.9479373233 -1.0666464092
C -0.6866130531 4.2463182634 -0.7573131932
C 0.2999210706 4.2867248031 0.2918299089
C 0.6441659116 3.0106457175 0.5694052036
H -1.5249489514 2.4236665184 -1.7642457580
H -1.1718248474 5.0936912056 -1.2219324533
H 1.3714271818 2.5470849309 1.2160676186
H 0.7019735089 5.1706039419 0.7684771010
O 1.9412330178 0.0949200271 0.2102363600
C 2.6020167719 -0.7704410937 1.0953989447
C 3.9350651802 -0.6178933559 0.9515242876
C 4.1498960625 0.3760834852 -0.0700192837
C 2.9360882046 0.7817290281 -0.4981309208
H 1.9648956068 -1.3894891457 1.7058882991
H 4.6948833547 -1.1484801695 1.5085336374
H 2.5842989618 1.5070120234 -1.2128212736
H 5.1024935959 0.7404988333 -0.4299961431
O -0.0051716267 -1.9791979238 -0.0258096000
C -0.5540678867 -2.7357623209 1.0166513753
C -0.1470664461 -4.0174910058 0.9022780262
C 0.7082531118 -4.0954686152 -0.2538920927
C 0.7799219863 -2.8571733900 -0.7849789728
H -1.1836311214 -2.2020243913 1.7058941274
H -0.4216800290 -4.8297752890 1.5608719425
H 1.2974664940 -2.4226068260 -1.6229210782
H 1.2052808612 -4.9775209430 -0.6334763149
O -2.1152685574 0.0041013988 -0.4011402315
C -2.8171463814 -1.1191895540 -0.8477720837
C -4.1012068637 -1.0439086536 -0.4376246980
C -4.2418641911 0.1802127411 0.3071149907
C -3.0347048597 0.7891918501 0.3183322832
H -2.2405536728 -1.8351947950 -1.4087365217
H -4.8767562558 -1.7684747508 -0.6441045178
H -2.6756662018 1.7557112407 0.6351590084
H -5.1479996361 0.5623094609 0.7581309345
