54
# extracted from Terachem optimization
Fe 0.0456885418 0.0092436171 0.0682502148
C 0.0689363092 0.0394010495 -2.1414999441
N 0.0717243526 0.0575627085 -3.3018128760
C 0.0690482822 0.0795706675 -4.7342559286
H -0.5241693102 -0.7619957257 -5.0996901470
H 1.0974758448 -0.0066896746 -5.0925700825
H -0.3664584176 1.0221457301 -5.0742463939
O 0.0323349689 2.2295592748 -0.0041098674
C -1.0974167352 3.0411018981 -0.1565089880
C -0.7148156002 4.3304189078 -0.2721787580
C 0.7246971340 4.3576956956 -0.2021526462
C 1.1415641744 3.0827393520 -0.0473771271
H -2.0412235359 2.5219639494 -0.1417922152
H -1.3738810709 5.1791349363 -0.3913312431
H 2.0979286194 2.5946593014 0.0453757994
H 1.3600355205 5.2307872331 -0.2612288810
O 2.3545565783 -0.0105026327 0.0841896653
C 3.1946170436 0.3325877665 1.1470024360
C 4.4848758181 0.1519130253 0.7885428811
C 4.4824855253 -0.3351591656 -0.5673122485
C 3.1916334438 -0.4212171579 -0.9552377853
H 2.6959181941 0.6547961849 2.0456998401
H 5.3505787918 0.3378166805 1.4097241292
H 2.6953704567 -0.7365156227 -1.8579694779
H 5.3448710592 -0.5881516078 -1.1685146989
O 0.0789584461 -2.2196345855 0.0214737742
C 1.2002350955 -3.0349381275 0.2058785070
C 0.8459829977 -4.3296802783 0.0611544066
C -0.5656589230 -4.3559672742 -0.2278250005
C -0.9949160374 -3.0754186143 -0.2436671908
H 2.1168068629 -2.5152954866 0.4278402492
H 1.5046150228 -5.1826106318 0.1485835373
H -1.9443649311 -2.5891268911 -0.3993749129
H -1.1751699553 -5.2328930116 -0.3967589084
O -2.3240989811 0.0225707245 0.0348137951
C -3.1411029047 -0.2680423152 -1.0594218242
C -4.4408213622 -0.1188881437 -0.7193285734
C -4.4690802997 0.2919466721 0.6602208904
C -3.1858309591 0.3680338128 1.0772799671
H -2.6271704706 -0.5417780974 -1.9660724506
H -5.2911554628 -0.2793097695 -1.3680888790
H -2.7122369859 0.6199825279 2.0107451273
H -5.3455244500 0.5001337274 1.2586779905
C -0.2356700991 -0.0490381830 5.0180006086
C 0.0436710160 1.1315548442 4.3257235334
C 0.1084513424 1.1002685424 2.9386731872
N -0.0890245965 -0.0320562810 2.2174952606
C -0.3608088052 -1.1707035110 2.8984165609
C -0.4418940073 -1.2178715927 4.2855723556
H -0.2919179583 -0.0559362728 6.1024357236
H 0.2095574002 2.0686157167 4.8469407804
H 0.3257395672 1.9984946951 2.3736354027
H -0.5222002434 -2.0624179980 2.3075368645
H -0.6621203593 -2.1608545862 4.7740769422
