23
# extracted from Terachem optimization
Fe -0.0000285615 0.0000216423 -0.0799363642
C 0.0049844386 1.9222015051 0.1329028023
O 0.0073749119 3.0235570877 0.3816804303
C 1.9213573163 -0.0044569574 -0.1876233448
O 3.0433730908 -0.0062567335 -0.3113722381
C -0.0050565074 -1.9221908600 0.1326309261
O -0.0074839794 -3.0236105894 0.3811810908
C -1.9214036268 0.0045041660 -0.1875732646
O -3.0434225415 0.0063165653 -0.3112760528
O 0.0000136658 -0.0000291959 2.0303433854
H 0.7826567239 0.0286565277 2.6114593879
H -0.7826049909 -0.0291362064 2.6114706522
C 0.0000936417 0.0004541880 -4.9080231591
C -0.0276877149 1.1987095218 -4.1934939992
C -0.0271172295 1.1626846726 -2.8059360567
N -0.0000610052 0.0001761196 -2.1041485566
C 0.0270810357 -1.1621917948 -2.8061606501
C 0.0278166116 -1.1979439243 -4.1937266919
H 0.0001387586 0.0005634480 -5.9937050676
H -0.0498770808 2.1600852877 -4.6960745104
H -0.0499380465 2.0906504951 -2.2495702127
H 0.0498723803 -2.0902624106 -2.2499654915
H 0.0501507505 -2.1592175381 -4.6964980218
