42
# extracted from Terachem optimization
Fe -0.0430065290 -0.0067198882 0.0260948472
C -0.0643351853 0.0396368162 -2.3171970353
O -0.0925165888 0.0804641011 -3.4438698820
O -0.2951260777 0.0945931273 2.1470264745
H 0.1714614328 0.7317191897 2.7165913470
H -1.1934986365 0.0079037135 2.5160776825
O -0.0477701799 2.2168710689 -0.0438765751
C -0.8200594393 3.0359594052 -0.8802884340
C -0.4690937551 4.3265657385 -0.6984019845
C 0.5769121091 4.3502522878 0.2925143382
C 0.8039510786 3.0731390494 0.6670761749
H -1.5610374043 2.5316883579 -1.4801360995
H -0.9007671980 5.1798063816 -1.2034063123
H 1.5047468679 2.5952296183 1.3331747113
H 1.0902928952 5.2248657392 0.6682940086
O 2.0962971241 0.0095205763 0.0293712625
C 2.9422842692 -0.8344738455 0.7701888212
C 4.2252161665 -0.5626357251 0.4564720489
C 4.2182753156 0.4945914627 -0.5250382981
C 2.9314627971 0.8176216732 -0.7632169778
H 2.4455998519 -1.5392296714 1.4183680044
H 5.0970648159 -1.0509117911 0.8695297360
H 2.4319003089 1.5519325101 -1.3740075588
H 5.0822231685 0.9532266285 -0.9860630436
O 0.0808207600 -2.1741733001 0.0729900293
C -0.2091359432 -2.9949385405 1.1760893259
C 0.0991233108 -4.2737803652 0.8793958692
C 0.6187207555 -4.2907353751 -0.4657532968
C 0.5999789120 -3.0208362955 -0.9187563189
H -0.6074782374 -2.4873238236 2.0377029518
H -0.0248049203 -5.1257538171 1.5339871288
H 0.9045342486 -2.5419473855 -1.8350287426
H 0.9659475314 -5.1561308898 -1.0135276073
O -2.2198249784 -0.0314776665 -0.0583688811
C -3.0113682171 -1.0718920218 -0.5731511590
C -4.3096937936 -0.8234997719 -0.3049354115
C -4.3709511080 0.4261095211 0.4120612317
C -3.1066871658 0.8780007505 0.5469590984
H -2.4757539427 -1.8740724606 -1.0551635132
H -5.1469252010 -1.4500145872 -0.5815225144
H -2.6552750537 1.7688654531 0.9536943019
H -5.2623788804 0.9210882159 0.7731707765
