151
# extracted from Terachem optimization
Fe 0.0006367121 -0.0004194031 -0.0004208371
C -0.0029518795 1.9293737744 -0.0009733563
N -0.0030872454 3.0969727234 -0.0015927583
C -0.0012668980 4.4841149879 -0.0009787169
C -1.1664584230 5.1806817565 0.3589380471
C -1.1483808453 6.5657948067 0.3534780486
C 0.0081892987 7.3011504031 -0.0008969801
C -0.0272713905 8.8304852773 0.0090841363
C -1.1127441371 9.3121022741 -0.9914725546
C -0.3967326289 9.3184565592 1.4359514578
C 1.3216635233 9.4556882821 -0.3924003668
C 1.1574730082 6.5649166546 -0.3554957237
C 1.1647274138 5.1759552176 -0.3600910580
H -2.0625168577 4.6357390185 0.6374662743
H -2.0539351614 7.0936688379 0.6310570698
H -0.8851390212 8.9831844551 -2.0110875290
H -1.1485197706 10.4064137392 -0.9883027437
H -2.1111495424 8.9480000027 -0.7284280632
H 0.3513981657 9.0011444919 2.1703106335
H -1.3740500686 8.9471344969 1.7599620838
H -0.4386394818 10.4123010916 1.4445304822
H 2.1273289498 9.1753118243 0.2955585154
H 1.2382059255 10.5461297159 -0.3662931468
H 1.6166702405 9.1780566823 -1.4106463129
H 2.0661942993 7.0835322705 -0.6345754023
H 2.0582256840 4.6268892878 -0.6390987440
C 1.9226866210 0.0024349735 0.0031851256
N 3.0905662442 0.0041835820 0.0062586956
C 4.4774167652 0.0046030345 0.0065784975
C 5.1731326493 -1.2133294409 -0.0720622172
C 6.5582078455 -1.1967701474 -0.0720112751
C 7.2943207597 0.0092553828 0.0033086647
C 8.8242111893 -0.0291571564 -0.0000311031
C 9.3071373717 -0.8509288257 1.2250095362
C 9.3094372657 -0.7198957855 -1.3029566707
C 9.4502537760 1.3756166904 0.0704296411
C 6.5604973669 1.2104244585 0.0812420883
C 5.1712780751 1.2211456147 0.0843434643
H 4.6270658502 -2.1490510440 -0.1325227189
H 7.0852330476 -2.1424100654 -0.1330823736
H 8.9868149254 -0.3873771963 2.1642713584
H 10.4009473570 -0.8957828377 1.2246838111
H 8.9347789155 -1.8802473907 1.2066574314
H 8.9935133528 -0.1597824493 -2.1896539661
H 8.9374259377 -1.7452430371 -1.3946808972
H 10.4032046566 -0.7655785615 -1.3032103391
H 9.1652980468 1.9962149748 -0.7867411826
H 10.5405847386 1.2876992192 0.0576586257
H 9.1801031257 1.9039572755 0.9920094271
H 7.0823943518 2.1574414068 0.1410606182
H 4.6241772232 2.1564156824 0.1471232463
C 0.0040853564 -1.9301659148 -0.0012167333
N 0.0049770051 -3.0977524432 -0.0021768179
C 0.0043339323 -4.4847622806 -0.0017349586
C -1.2153899978 -5.1793429209 -0.0567087185
C -1.1997258876 -6.5643499049 -0.0548009770
C 0.0075037421 -7.3014223311 -0.0005330632
C -0.0315994368 -8.8307439741 -0.0012336674
C -0.8336852743 -9.3122336659 1.2379066948
C -0.7440377170 -9.3163150404 -1.2927623621
C 1.3730146203 -9.4593318303 0.0474742110
C 1.2105789951 -6.5681147677 0.0534060729
C 1.2217582285 -5.1793161324 0.0539530584
H -2.1517122904 -4.6327981281 -0.1016436694
H -2.1467467409 -7.0907285701 -0.0978293966
H -0.3535798191 -8.9919518099 2.1688139080
H -0.8790766285 -10.4060403900 1.2382140002
H -1.8628593343 -8.9392055559 1.2370745224
H -0.1987304492 -8.9995567153 -2.1882957229
H -1.7709320531 -8.9448740406 -1.3672580384
H -0.7886205719 -10.4101404359 -1.2920155743
H 1.9800982024 -9.1787713233 -0.8207273932
H 1.2818924108 -10.5494796646 0.0392650044
H 1.9169334419 -9.1879652323 0.9595196226
H 2.1581311561 -7.0905109074 0.0959935737
H 2.1580234948 -4.6324166685 0.0972993690
C -1.9216142416 -0.0004946708 -0.0001819308
N -3.0894529196 0.0009898116 0.0008933050
C -4.4764360177 0.0005932530 0.0006089362
C -5.1729575980 1.1681700300 -0.3521885329
C -6.5583350754 1.1504100577 -0.3469839622
C -7.2939319365 -0.0071889188 0.0012194855
C -8.8239709862 0.0282814983 -0.0087783275
C -9.3064979146 1.1113698908 0.9930652301
C -9.3116126469 0.3998775581 -1.4347209516
C -9.4466355241 -1.3225678621 0.3902213415
C -6.5582397376 -1.1584006858 0.3494336072
C -5.1689451573 -1.1668272836 0.3530648240
H -4.6277375450 2.0658308335 -0.6251764691
H -7.0859409511 2.0576374351 -0.6196605881
H -8.9785695937 0.8825636565 2.0127327197
H -10.4007434212 1.1477582751 0.9893650843
H -8.9420689896 2.1101177309 0.7317524977
H -8.9949606166 -0.3470825957 -2.1705719047
H -8.9393134270 1.3775281128 -1.7567639509
H -10.4053820849 0.4429190285 -1.4438210457
H -9.1643895736 -2.1262423684 -0.2993136244
H -10.5372328459 -1.2420219034 0.3648827143
H -9.1674387722 -1.6188618992 1.4076897483
H -7.0772547916 -2.0683468929 0.6240776338
H -4.6205563073 -2.0627696016 0.6262017974
C -0.0009962402 -0.0005867609 1.9283720791
N -0.0026317222 -0.0014659496 3.0964596074
C -0.0030154669 -0.0014732164 4.4818024833
C 1.2170195206 0.0663013849 5.1769880921
C 1.1998844575 0.0661936912 6.5610572434
C -0.0092752309 -0.0012391500 7.2978345326
C 0.0288414667 0.0009273449 8.8248691174
C 0.8544798643 -1.2236768850 9.3073848077
C 0.7211627044 1.3054610157 9.3092652314
C -1.3737794800 -0.0708440075 9.4551630290
C -1.2127888086 -0.0687391043 6.5628619337
C -1.2226076731 -0.0690059815 5.1751243196
H 2.1529252809 0.1192936129 4.6305159063
H 2.1453902902 0.1206902175 7.0888568119
H 0.3917097586 -2.1632854348 8.9873661424
H 0.8977777130 -1.2210421581 10.4012212101
H 1.8839774832 -1.2041417492 8.9360920461
H 0.1595941582 2.1913382839 8.9941200717
H 1.7461298603 1.3978019254 8.9368139744
H 0.7664549292 1.3032543923 10.4030402345
H -1.9958011914 0.7865249655 9.1743606908
H -1.2811605297 -0.0594236755 10.5451109099
H -1.9026031024 -0.9923976688 9.1861074996
H -2.1599089951 -0.1221780102 7.0850268942
H -2.1573461637 -0.1215907973 4.6263441022
C -0.0002226019 -0.0014142608 -1.9285120892
N -0.0028023318 -0.0022287812 -3.0966965113
C -0.0038602155 -0.0017503670 -4.4818961042
C 1.2177217529 -0.0274760909 -5.1773292957
C 1.2006246545 -0.0249614109 -6.5612282108
C -0.0103527163 0.0007265759 -7.2978111669
C 0.0279938770 0.0003662468 -8.8248012163
C 0.8125512696 1.2518489330 -9.3076180084
C 0.7639737721 -1.2805073665 -9.3077836609
C -1.3760792560 0.0264971881 -9.4556598503
C -1.2155109274 0.0250293568 -6.5627575401
C -1.2251973939 0.0249062144 -5.1750811390
H 2.1549032062 -0.0478533792 -4.6309223100
H 2.1475346418 -0.0437362297 -7.0889377091
H 0.3169031487 2.1754614172 -8.9902742122
H 0.8580678410 1.2486770409 -10.4013920705
H 1.8413059361 1.2680942122 -8.9343526661
H 0.2319243388 -2.1842626014 -8.9922410111
H 1.7907063535 -1.3375396421 -8.9331941104
H 0.8110519568 -1.2777902066 -10.4014911291
H -1.9690242242 -0.8526406614 -9.1790561318
H -1.2826701371 0.0228516369 -10.5456441752
H -1.9355625311 0.9284858545 -9.1825874376
H -2.1638904134 0.0440852723 -7.0850034545
H -2.1611428889 0.0433523065 -4.6262592503
