15
# extracted from Terachem optimization
Fe -0.0000002781 0.0000000599 0.0000013916
C 0.0000469964 2.0412940424 0.0000009329
O 0.0000028275 3.1621058288 0.0000008744
C 2.0210574443 0.0000012665 -0.0000047891
O 3.1423992609 -0.0000007524 0.0000018421
C -0.0000471862 -2.0412901233 -0.0000000556
O -0.0000030603 -3.1621092634 -0.0000023030
C -2.0210686287 -0.0000014010 0.0000062915
O -3.1423867129 0.0000004698 -0.0000028179
O 0.0000035692 0.0000209344 1.9125170155
H 0.7948549544 0.0248807663 2.5017861251
H -0.7948552118 -0.0249027659 2.5017818425
O -0.0000052248 -0.0000206733 -1.9125178187
H -0.7948571556 0.0248008212 -2.5017865013
H 0.7948584161 -0.0247792077 -2.5017820274
