42
# extracted from Terachem optimization
Fe -0.1399823579 -0.1761365056 0.1099803656
C -0.3251249075 0.0898377967 -2.1782924786
O -0.4387321485 0.2700056097 -3.2845326168
O -0.3073048171 -0.1407594401 2.2162729432
H 0.0586584350 0.5081465113 2.8466926763
H -1.0730108386 -0.5490210945 2.6642088661
O -0.1025915837 2.2324367473 0.0858602746
C -0.9589569178 3.0911973465 -0.6047126424
C -0.5156086518 4.3838167788 -0.5018013138
C 0.6737790072 4.3548043398 0.2735050500
C 0.8999685618 3.0461612795 0.6132341071
H -1.8056014438 2.6334410826 -1.0944441712
H -0.9928698144 5.2534088828 -0.9372914443
H 1.6590129409 2.5538903100 1.2017988630
H 1.2925020486 5.1984159541 0.5541111137
O 2.0642277948 0.0131936415 0.0829592743
C 2.9766340418 -0.5897232008 0.9610704909
C 4.2477514134 -0.3892488728 0.5144004968
C 4.1607332519 0.3777351823 -0.6875979163
C 2.8402356529 0.6110788943 -0.9248173314
H 2.5527721928 -1.0835434347 1.8214443144
H 5.1509532385 -0.7443080670 0.9956379897
H 2.3016341256 1.1268966748 -1.7042181390
H 4.9846686873 0.7165794498 -1.3035034280
O 0.1254669508 -2.2942003557 0.0678643484
C 0.4800132006 -3.1043963355 1.1672645566
C 0.7949849965 -4.3496497073 0.7344289926
C 0.6467198669 -4.3599032222 -0.6925435772
C 0.2484512545 -3.1202514534 -1.0671665496
H 0.4057730132 -2.6337331781 2.1336377792
H 1.0878364273 -5.1839155592 1.3598252108
H 0.0037166781 -2.6693157775 -2.0157730896
H 0.8068151806 -5.2015653895 -1.3551073601
O -2.3567089890 -0.1297989509 0.1035755705
C -3.1815052801 0.8326392545 0.7162927761
C -4.4655374813 0.6590256768 0.3087670061
C -4.4828437524 -0.4559210472 -0.5925850408
C -3.2089618938 -0.9113222562 -0.6995146914
H -2.6938266948 1.5013724762 1.4076756580
H -5.3164466819 1.2493681416 0.6262160829
H -2.7476212431 -1.7420853930 -1.2122123998
H -5.3507479767 -0.8746493625 -1.0866977113
