21
# extracted from Terachem optimization
Fe -0.0000054141 0.0003840421 0.0000137574
C -0.0000418058 2.3551194457 0.0000252389
O -0.0000283283 3.4821675481 0.0000107227
C 2.3550186221 -0.0000346836 -0.0000347523
O 3.4820993038 0.0000943469 0.0002945835
C 0.0000403648 -2.3549543952 -0.0000256253
O 0.0000277706 -3.4819816803 -0.0000100590
C -2.3550408739 0.0000451724 0.0000356577
O -3.4820699986 0.0001518295 -0.0002953280
C 0.0009158739 0.0010623109 2.1908661258
N 0.0005215115 0.0004666486 3.3493999769
C -0.0001712247 -0.0003579102 4.7832080121
H 0.6079484836 -0.8390153480 5.1323922078
H -1.0304514036 -0.1082224066 5.1323543695
H 0.4212033314 0.9455546640 5.1335564226
C -0.0009131782 0.0010498824 -2.1908622126
N -0.0005226159 0.0005269037 -3.3494147044
C 0.0001705826 -0.0003461271 -4.7832112656
H -0.6079419340 -0.8390233521 -5.1323623780
H 1.0304508567 -0.1082395111 -5.1323500672
H -0.4212099205 0.9455526365 -5.1335906833
