61
# extracted from Terachem optimization
Fe -0.0455018785 -0.0475720366 -0.1078164417
C 0.2470564768 3.0558881938 -0.7050454235
N -0.3143019821 2.0187505726 0.2072694766
H -1.3252650343 2.1546053114 0.2503180556
H -0.0004459746 2.2263067100 1.1574339818
H -0.1663987605 2.9174554473 -1.7045002143
H 1.3334748301 2.9525745241 -0.7639813746
H 0.0124291545 4.0658836486 -0.3561689066
C 2.7114061745 -0.5108777519 1.3858410966
N 2.0159577391 0.1868846385 0.2658001532
H 2.5158859166 -0.0201439463 -0.6005255903
H 2.1550178430 1.1906262348 0.3902390737
H 2.5432623941 -1.5874142738 1.3072768855
H 2.3017067624 -0.1651038755 2.3356340910
H 3.7884137546 -0.3203648213 1.3686492899
C -0.3395642581 -3.1511915361 0.4886113714
N 0.2235901605 -2.1140650245 -0.4226032341
H -0.0884529307 -2.3215236790 -1.3733806272
H 1.2346188260 -2.2500218782 -0.4637487095
H -1.4259921669 -3.0472602100 0.5461958452
H 0.0726892623 -3.0133206049 1.4886433653
H -0.1050673214 -4.1612037470 0.1397057111
C -2.8023811171 0.4168754343 -1.6009419000
N -2.1068464359 -0.2820790644 -0.4816869689
H -2.2455828806 -1.2857013231 -0.6074063844
H -2.6068916509 -0.0762785910 0.3848628043
H -2.3931225220 0.0716533008 -2.5511236742
H -2.6337681892 1.4932751479 -1.5215710610
H -3.8794591695 0.2267850171 -1.5835369518
C -0.3954484210 -0.3007027103 1.7969655615
N -0.6159571434 -0.3989467595 2.9383752282
C 0.1664573415 0.4673815512 5.0958146658
C 1.4441459986 0.0278228519 5.4659090342
C 2.3157799976 0.8938057555 6.1277570032
C 1.9138417022 2.1990226936 6.4220686900
C 0.6387875141 2.6386935292 6.0577335561
C -0.2342562423 1.7753900215 5.3945344952
H 1.7463377514 -0.9983708899 5.2675741819
H 3.2978711883 0.5445010217 6.4317155352
H 0.3183007845 3.6459090980 6.3060747837
H -1.2358488940 2.1112274940 5.1348502809
H 2.5871803462 2.8673944567 6.9500687339
C -0.7815862452 -0.4727724500 4.3810815000
H -1.8289661523 -0.2354047592 4.5906014040
H -0.6104147850 -1.5170764098 4.6604256541
C 0.3043733199 0.2053698452 -2.0126188759
N 0.5245937668 0.3033640193 -3.1541049255
C -0.2590017158 -0.5625597984 -5.3111980073
C 0.1408187862 -1.8708131627 -5.6100297197
C -0.7331114775 -2.7337191612 -6.2725787904
C -2.0081493175 -2.2933990770 -6.6361673521
C -2.4091651834 -0.9879057750 -6.3418111210
C -1.5366526698 -0.1223164587 -5.6806111728
H 1.1423725031 -2.2071845965 -5.3508875296
H -0.4133454130 -3.7411538420 -6.5209597641
H -3.3912519470 -0.6381046169 -6.6452076395
H -1.8381429719 0.9040709369 -5.4822139819
H -2.6821993389 -2.9614809751 -7.1636255436
C 0.6898863245 0.3770332113 -4.5968462877
H 0.5193550615 1.4214398993 -4.8762019956
H 1.7370473387 0.1389567408 -4.8066603466
