37
# extracted from Terachem optimization
Fe 0.0001981452 0.0001896767 -0.0001021138
C -0.0002621441 1.9732397290 -0.0003060077
N -0.0007920578 3.1295817044 -0.0003574123
C -0.0016345833 4.5669615005 0.0005308008
H 0.8386339479 4.9146171800 -0.6072481151
H 0.1095710645 4.9160992336 1.0304656578
H -0.9457894639 4.9183132185 -0.4233459345
C 1.9645853888 0.0004040556 0.0345392764
N 3.1210028390 0.0004917667 0.0264382990
C 4.5588750804 -0.0003275765 0.0083679203
H 4.8991094744 -0.8376218292 -0.6067288909
H 4.9243858578 -0.1076768537 1.0326004471
H 4.9026639451 0.9446447083 -0.4207574778
C 0.0005791542 -1.9729991926 -0.0003670846
N 0.0001495447 -3.1293810118 -0.0004755748
C -0.0019754961 -4.5667694980 -0.0005465451
H -0.8394100650 -4.9173044890 -0.6089420870
H -0.1063259908 -4.9153697797 1.0305032911
H 0.9454977914 -4.9158313117 -0.4207388893
C -1.9643599408 -0.0000381523 -0.0343638635
N -3.1207559360 -0.0005323715 -0.0259883170
C -4.5586760571 -0.0010690913 -0.0070384483
H -4.9210541707 -0.6075849134 -0.8409830512
H -4.9088996941 1.0295751510 -0.1091912543
H -4.8957311799 -0.4214102190 0.9439404317
C 0.0354790358 0.0006075509 1.9644579228
N 0.0270948417 0.0005323970 3.1208558117
C 0.0063406714 -0.0003774296 4.5587656382
H 0.6099882286 -0.8382756198 4.9172985461
H -1.0285778531 -0.1074643685 4.8932946732
H 0.4238168842 0.9450233776 4.9153037709
C -0.0352150440 0.0002486356 -1.9644945890
N -0.0270198340 0.0004568015 -3.1209055754
C -0.0063325573 -0.0003227540 -4.5587708904
H -0.6099224596 -0.8382507124 -4.9172403637
H 1.0286037113 -0.1074981812 -4.8932235072
H -0.4238410890 0.9451176638 -4.9152494915
