57
# extracted from Terachem optimization
Fe 0.0741817219 -0.0053537545 0.1276915965
O 0.1106488151 2.2141931416 0.0724828983
C -0.9965747798 3.0727581036 0.0440310135
C -0.5744430895 4.3491210035 -0.0834371749
C 0.8656385095 4.3204485422 -0.1420033453
C 1.2450840717 3.0282583055 -0.0479264717
H -1.9543688088 2.5878228370 0.1411383477
H -1.2059081297 5.2258320879 -0.1286494800
H 2.1858526582 2.5046275492 -0.0481095700
H 1.5255352954 5.1714481643 -0.2401820784
O 2.3595760584 -0.0108221759 0.0585339501
C 3.2352455924 -0.1700807056 1.1376756160
C 4.5116960950 -0.1446996703 0.6943938353
C 4.4627491045 0.0392333291 -0.7335555629
C 3.1599074355 0.1156475165 -1.0821718905
H 2.7653688087 -0.2732895928 2.1022506196
H 5.3998953729 -0.2413594140 1.3037033145
H 2.6246476877 0.2457184115 -2.0078604482
H 5.3053556067 0.1040489229 -1.4084450140
O 0.0735600986 -2.2221832754 0.0854541695
C 1.1862441780 -3.0581350081 0.2461575632
C 0.7887166188 -4.3480553296 0.2151769436
C -0.6405074570 -4.3516442618 0.0264403730
C -1.0393760095 -3.0634241149 -0.0472836202
H 2.1280878088 -2.5492147311 0.3685215577
H 1.4302826948 -5.2131008324 0.3107396005
H -1.9808854325 -2.5589331852 -0.1915772844
H -1.2814822038 -5.2199253953 -0.0447105775
O -2.2676591713 -0.0138556246 -0.0567024110
C -3.2257038265 0.3388277610 0.8973201354
C -4.4583905838 0.3013604383 0.3430504094
C -4.2939509925 -0.0907902846 -1.0320422343
C -2.9701694576 -0.2673621871 -1.2382783619
H -2.8521745768 0.5603394333 1.8836451585
H -5.3892640342 0.5224663392 0.8470939840
H -2.3686197932 -0.5488237693 -2.0863421265
H -5.0754984779 -0.2208518915 -1.7680039088
O 0.0870640624 -0.0187412624 -2.0588104432
C -0.2182038158 1.0526985626 -2.9148397157
C -0.1597195142 0.6310996182 -4.1948497685
C 0.1971564868 -0.7669548538 -4.1744406975
C 0.3380203833 -1.1298842836 -2.8825336443
H -0.4488189166 1.9840332981 -2.4240549800
H -0.3481106207 1.2381667658 -5.0697391016
H 0.5998011944 -2.0361780254 -2.3624995436
H 0.3286954520 -1.4138110454 -5.0310907544
C -0.4144038620 0.0422988454 5.0344610597
C -0.7020899747 -1.1108812342 4.3026634798
C -0.5473934137 -1.0896760266 2.9227283224
N -0.1301378497 0.0111519165 2.2495273079
C 0.1460590753 1.1284123933 2.9682997620
C 0.0174906224 1.1801926961 4.3499818038
H -0.5251172755 0.0545549298 6.1146247942
H -1.0440450870 -2.0180566809 4.7893770724
H -0.7698990892 -1.9657181020 2.3278447885
H 0.4786743652 1.9929886386 2.4084065265
H 0.2506046290 2.1007865362 4.8741477169
