67
# extracted from Terachem optimization
Fe -0.0227792404 -0.0084794187 -0.0040917717
C -0.1036194238 5.1301041992 0.0955396947
C 1.1079835607 4.4404510454 0.0336724015
C 1.0889860584 3.0497518560 0.0141559573
N -0.0508673830 2.3251565562 0.0495212172
C -1.2162859894 3.0049826243 0.1121762578
C -1.2882100268 4.3945420356 0.1366030469
H -0.1247915181 6.2152592518 0.1135013639
H 2.0551738315 4.9677731272 0.0022093792
H 2.0059150816 2.4744781227 -0.0241102369
H -2.1094639723 2.3940159299 0.1388662375
H -2.2551267366 4.8845220231 0.1863955724
C 5.1487072810 -0.0748181670 -0.0085359357
C 4.4289668342 -0.3939095590 1.1432559729
C 3.0383420335 -0.3536320982 1.0990733497
N 2.3405457213 -0.0228345391 -0.0089224203
C 3.0495364112 0.2776794495 -1.1184822159
C 4.4411829835 0.2670858376 -1.1614843448
H 6.2344906328 -0.0941779960 -0.0090541291
H 4.9311371944 -0.6728711485 2.0638614683
H 2.4470332116 -0.5994221811 1.9736692527
H 2.4671654848 0.5349660997 -1.9964759154
H 4.9548278092 0.5222422677 -2.0827060554
C -0.0394892746 -5.1519102584 -0.0556568892
C -1.2340746338 -4.4318173861 -0.0168333408
C -1.1811143116 -3.0413276382 -0.0167604518
N -0.0239081539 -2.3450053167 -0.0550306232
C 1.1248299622 -3.0552528459 -0.1006639477
C 1.1633033987 -4.4460817369 -0.0993154852
H -0.0462558637 -6.2375361720 -0.0538393686
H -2.1948909318 -4.9346856767 0.0134793733
H -2.0824985987 -2.4420882603 0.0173169071
H 2.0344268313 -2.4696429172 -0.1428784555
H 2.1186141603 -4.9600270690 -0.1316540499
C -5.1782979798 0.0115162940 0.0072560505
C -4.4671864791 0.0036121102 -1.1931193744
C -3.0762566933 -0.0130953031 -1.1495815821
N -2.3714001982 -0.0211081379 0.0022885098
C -3.0720183629 -0.0170172098 1.1572538613
C -4.4628075699 -0.0011074325 1.2053528460
H -6.2639540238 0.0272870910 0.0092621956
H -4.9761844999 0.0106581251 -2.1513067753
H -2.4863662004 -0.0194983701 -2.0582701763
H -2.4788575423 -0.0250674311 2.0643038374
H -4.9692681480 0.0005582165 2.1649077338
C 0.1546298096 -0.0141998967 5.0840619559
C 0.3147452354 1.1728619872 4.3701789009
C 0.2500417673 1.1342413246 2.9812557623
N 0.0377370152 -0.0014549283 2.2825903974
C -0.1133267832 -1.1466755131 2.9847238571
C -0.0617145786 -1.1959756430 4.3736734836
H 0.1986014035 -0.0194554921 6.1686352197
H 0.4870494589 2.1181653312 4.8741277953
H 0.3698282416 2.0319139744 2.3898796159
H -0.2790558118 -2.0403126310 2.3952503195
H -0.1883049050 -2.1445054497 4.8843594421
C 0.0656873419 0.1342074345 -5.0993097244
C 0.1719023274 -1.0835879077 -4.4274250866
C 0.1387139665 -1.0906135343 -3.0366383091
N 0.0030137314 0.0310505965 -2.2972516502
C -0.1005373101 1.2054659519 -2.9593036562
C -0.0711360486 1.3011964417 -4.3464626876
H 0.0888412640 0.1753143216 -6.1839255678
H 0.2775182438 -2.0177150440 -4.9679069343
H 0.2176046037 -2.0138743484 -2.4769446169
H -0.2110364446 2.0849208362 -2.3378478671
H -0.1547163130 2.2737119723 -4.8210970199
