26
# extracted from Terachem optimization
Fe -0.0005395040 0.0005370595 0.1063445782
C 0.0313149410 2.3555984068 -0.1762100919
O 0.0423017492 3.4561549422 -0.4225741979
C 2.3513101833 -0.0163944116 0.0521713465
O 3.4787525075 -0.0093594465 0.0485148587
C -0.0310569412 -2.3545330304 -0.1763237756
O -0.0413466968 -3.4551060839 -0.4226202923
C -2.3521816323 0.0171241660 0.0523835864
O -3.4796237673 0.0096005112 0.0485799294
C -0.0009378329 0.0007724393 -2.1343978149
N -0.0007694048 0.0004427103 -3.2937411936
C 0.0005753880 -0.0011008766 -4.7276963372
H -0.6093463066 -0.8378898218 -5.0776723152
H 1.0303619153 -0.1120002449 -5.0766915339
H -0.4180827095 0.9451402447 -5.0799440178
C -0.0001411331 0.0003812754 5.0081058199
C -0.1236968934 1.1961724640 4.2965493878
C -0.1222794349 1.1562172399 2.9102604674
N -0.0001180913 0.0003995064 2.2065118959
C 0.1220522840 -1.1554331261 2.9102475035
C 0.1234120246 -1.1954050862 4.2965389590
H -0.0001111501 0.0003645619 6.0939414126
H -0.2197749735 2.1497372816 4.8047512150
H -0.2237392345 2.0726727640 2.3401823403
H 0.2236541350 -2.0718643826 2.3401581791
H 0.2194345362 -2.1489839857 4.8047270409
