21
# extracted from Terachem optimization
Fe 0.0137005389 0.0007072930 -0.1712292888
C 0.0469446123 0.0044400761 2.3156509250
O 0.0618038119 0.0078315909 3.4402005373
O -0.0121988348 2.0292394446 0.0770055443
H 0.7643950263 2.6300105531 0.1138749883
H -0.8134268469 2.5945504791 0.1397373551
O 2.0619488977 -0.0031186769 0.0389577531
H 2.7144759069 0.0001934724 -0.6959327571
H 2.5778390685 -0.0084539565 0.8751414897
O -0.0131181869 -2.0285073964 0.0775635974
H 0.7627770396 -2.6310863000 0.0969289638
H -0.8144017195 -2.5918066882 0.1551403688
O -2.0399522920 0.0000369778 0.0775825076
H -2.5431213357 -0.0026847017 0.9209853569
H -2.7013929356 0.0015940369 -0.6484654880
C 0.0035498705 0.0004262457 -2.2697245951
N -0.0048890340 0.0005864381 -3.4293000026
C -0.0176292029 0.0003933400 -4.8616230237
H -0.6280411854 -0.8436397722 -5.2044056890
H 1.0153832736 -0.1138559907 -5.2157147288
H -0.4346474871 0.9531435928 -5.2080188950
