53
# extracted from Terachem optimization
Fe -0.0234867619 -0.0401637027 -0.0221967189
C -0.0749842868 -0.2602048103 1.8276381129
O -0.1030523520 -0.3980551844 2.9584929264
C 0.0504546643 0.1740550238 -1.9760480391
N 0.1079255007 0.2829606760 -3.1334440106
C 0.1912387607 0.4153162285 -4.5560586436
H -0.2887440420 -0.4459282215 -5.0273285124
H 1.2428017583 0.4594440344 -4.8496251527
H -0.3157405432 1.3331932484 -4.8626178331
C 0.0569280517 4.8164188728 0.5071642538
C 0.8533507980 4.0020500933 1.3120028049
C 0.8043319939 2.6238294179 1.1335903450
N 0.0151967822 2.0275126844 0.2123984410
C -0.7566833970 2.8253130870 -0.5591824677
C -0.7623087779 4.2107400765 -0.4456142007
H 0.0717736910 5.8955942257 0.6217020191
H 1.5049999826 4.4195396719 2.0723849157
H 1.4189253691 1.9707502423 1.7423879102
H -1.3914263262 2.3257850154 -1.2814006625
H -1.4016451797 4.7989743573 -1.0952858447
C 4.8617234581 -0.0894100584 0.1113563508
C 4.1215326538 -1.0022295649 0.8621341907
C 2.7334054995 -0.9656149418 0.7913837228
N 2.0575301080 -0.0769065983 0.0294885646
C 2.7842175894 0.8065422695 -0.6901283986
C 4.1739997494 0.8305198533 -0.6802535389
H 5.9466630045 -0.0941913880 0.1441110495
H 4.6056597752 -1.7348729375 1.4989266391
H 2.1364414376 -1.6747596999 1.3527005326
H 2.2247604678 1.5205780179 -1.2815935716
H 4.7007743812 1.5644672663 -1.2810927338
C -0.0648803905 -4.9013093702 -0.5306131312
C -0.9387464720 -4.2693563051 0.3535759379
C -0.9107607480 -2.8829410572 0.4549643820
N -0.0662820725 -2.1081056784 -0.2630633004
C 0.7750541295 -2.7303518767 -1.1181317104
C 0.8040976094 -4.1105115462 -1.2825627245
H -0.0596587886 -5.9822915721 -0.6294479552
H -1.6344287496 -4.8367938656 0.9629823630
H -1.5874648065 -2.3696749750 1.1281861834
H 1.4487935647 -2.0947073670 -1.6791135035
H 1.5011461636 -4.5499810892 -1.9881575116
C -4.9049617633 0.0390888526 -0.0972785574
C -4.1947381132 0.7323596166 0.8827842561
C -2.8051158784 0.6976185389 0.8604041522
N -2.1000340190 0.0134253864 -0.0686851256
C -2.7968733065 -0.6567383156 -1.0124945834
C -4.1863499852 -0.6655461374 -1.0634743169
H -5.9906114695 0.0475156193 -0.1073400087
H -4.7025762017 1.2923181763 1.6608809935
H -2.2320037557 1.2370979524 1.6059167885
H -2.2147947980 -1.2053859623 -1.7429319588
H -4.6887314266 -1.2204535116 -1.8488695083
