27
# extracted from Terachem optimization
Fe -0.1843153999 -0.2076162848 -0.0806968686
O -0.5690395348 1.7351035668 0.3666230892
H 0.2301580038 2.2053752042 0.6714376251
H -0.9668973411 2.3047559837 -0.3158364347
O 1.7524957956 0.2175553938 0.3494081141
H 2.4600626916 0.0362476025 -0.2939867929
H 2.0453132909 -0.1466873191 1.2053173290
O 0.1409338819 -2.2113732512 -0.2081322754
H 0.7764398182 -2.5711216464 -0.8514205822
H -0.6822516396 -2.7214103849 -0.3226906937
O -2.1483421703 -0.6555455377 -0.3819282105
H -2.7874046043 -0.4212198098 0.3148288763
H -2.5483339983 -0.3693538609 -1.2224874747
O -0.3308091499 -0.5018925957 1.9422007114
H -0.8524267633 0.0927538417 2.5090333639
H -0.4216020712 -1.4048307201 2.2938506833
C 0.5628344922 0.6333946060 -4.7644250705
C 1.0797433343 1.4862767551 -3.7876502108
C 0.8343730868 1.2051427616 -2.4488612970
N 0.1110016352 0.1343131367 -2.0407859766
C -0.3850885240 -0.6869396297 -2.9977586777
C -0.1840143725 -0.4731469992 -4.3563663760
H 0.7390304849 0.8259019634 -5.8181681686
H 1.6661180929 2.3596893882 -4.0529260844
H 1.2266115293 1.8487901440 -1.6683327583
H -0.9570122156 -1.5447459442 -2.6573229663
H -0.6054578937 -1.1668945238 -5.0763363394
