17
# extracted from Terachem optimization
Fe -0.0000981889 0.0001735314 -0.0170365620
C 0.0000205174 1.9233404318 -0.0537964013
O 0.0001277275 3.0497634315 -0.0928374060
C 1.9230882321 0.0001206948 -0.0538358356
O 3.0495179150 0.0000453131 -0.0929478406
C 0.0000178354 -1.9230660544 -0.0541170727
O 0.0001224691 -3.0494799327 -0.0931053580
C -1.9233072597 0.0001208603 -0.0538304662
O -3.0497255394 0.0000446180 -0.0930405476
C -0.0000426301 -0.0000274741 1.9146315645
O -0.0000362667 -0.0000719543 3.0415413590
C -0.0003611961 0.0005404499 -1.9792451779
N -0.0005250707 0.0005929891 -3.1347420882
C 0.0001431946 -0.0002739016 -4.5739685903
H -0.6089822198 -0.8397189209 -4.9194664999
H 1.0317602794 -0.1088035391 -4.9189493323
H -0.4217207688 0.9466994386 -4.9208987165
