61
# extracted from Terachem optimization
Fe -0.0511775288 0.2185622728 0.0104758629
C 1.2146479177 3.2717025710 -0.5107106879
N 0.2742916068 2.4614161251 0.3109517918
H -0.6664878755 2.8395358261 0.1890160736
H 0.4771086656 2.6220692721 1.2994629935
H 1.0163109902 3.0908428321 -1.5687619411
H 2.2436619540 2.9757218946 -0.2918752107
H 1.1189144205 4.3431816041 -0.3097237066
C 2.8488733509 -1.2513110173 0.5408116610
N 2.2058462156 0.0768951213 0.3519184889
H 2.6611310413 0.5509510618 -0.4296668098
H 2.4148048201 0.6486318218 1.1722880209
H 2.7288906498 -1.8424284921 -0.3709509258
H 2.3677321457 -1.7650703375 1.3767163934
H 3.9192574832 -1.1690754316 0.7533807104
C -1.3102516206 -2.8437450473 0.5279171078
N -0.3753281834 -2.0266986952 -0.2930207738
H -0.5804011559 -2.1842390661 -1.2815895501
H 0.5671540866 -2.4015576379 -0.1745514277
H -2.3413577013 -2.5547254579 0.3095165255
H -1.1126802422 -2.6630663605 1.5861512145
H -1.2079238432 -3.9144048594 0.3255721883
C -2.9656947903 1.6793849821 -0.4461878843
N -2.3073000736 0.3519996170 -0.3163136367
H -2.5171777425 -0.1913596026 -1.1556533725
H -2.7498576105 -0.1564108804 0.4507995019
H -2.5041470565 2.2289942731 -1.2704503874
H -2.8341641100 2.2377999354 0.4842741666
H -4.0387844607 1.5947466859 -0.6436097733
C -0.3292191896 -0.0134017868 2.2331786725
N -0.3793297056 -0.1274949852 3.3908256094
C 1.0457409378 -0.4453161052 5.3638793113
C 1.6223485730 -1.7191981407 5.4422920919
C 2.9182557222 -1.8689550804 5.9363403491
C 3.6409049476 -0.7480225406 6.3529143043
C 3.0671228129 0.5232903378 6.2786665499
C 1.7712662860 0.6760539228 5.7840711446
H 1.0525224778 -2.5963499648 5.1430707214
H 3.3559251194 -2.8595962332 6.0137873770
H 3.6204414093 1.3923754040 6.6213112367
H 1.3178102477 1.6643167778 5.7502828416
H 4.6439621165 -0.8673676293 6.7511456777
C -0.3645596803 -0.2823147536 4.8366797788
H -0.8576551135 0.6031595916 5.2487996443
H -0.9896616262 -1.1525877254 5.0594925425
C 0.2397899877 0.4359101615 -2.2109784240
N 0.3199162919 0.5184844336 -3.3695820835
C -0.9844472403 0.2479865454 -5.4321700103
C -1.2549147665 -1.0741427943 -5.8054188601
C -2.4852443165 -1.3994581942 -6.3775523663
C -3.4473844432 -0.4065145363 -6.5767856703
C -3.1788665780 0.9139927182 -6.2078633905
C -1.9494004076 1.2420831247 -5.6361600834
H -0.4981279369 -1.8446208858 -5.6747086518
H -2.6853697864 -2.4218462473 -6.6834622953
H -3.9182173928 1.6898771406 -6.3818315691
H -1.7330509874 2.2751687910 -5.3726663027
H -4.3992766357 -0.6581905773 -7.0345726417
C 0.3542248258 0.6060352685 -4.8207537060
H 0.6520226846 1.6312284344 -5.0609855532
H 1.1511075839 -0.0662309541 -5.1527966616
