15
# extracted from Terachem optimization
Fe 0.0000022786 0.0000003414 0.0000010606
C 0.0000040262 2.3289893369 -0.0000201678
O 0.0000006699 3.4547033081 0.0000170366
C 2.3441189351 -0.0000041302 0.0000318399
O 3.4696684163 -0.0000004727 -0.0000259828
C -0.0000035606 -2.3289753608 -0.0000191793
O -0.0000007926 -3.4547166253 0.0000172217
C -2.3441337264 0.0000045052 0.0000282366
O -3.4696556464 0.0000006362 -0.0000237448
O 0.0000093409 -0.0000007151 2.1065562580
H 0.7790504548 0.0305318912 2.6964465884
H -0.7790395129 -0.0305313754 2.6964356796
O -0.0000092889 -0.0000006514 -2.1065583726
H -0.7790510198 0.0305315654 -2.6964482059
H 0.7790394243 -0.0305322641 -2.6964382665
