67
# extracted from Terachem optimization
Fe -0.0161580001 -0.0037241292 -0.0041902821
C -0.1045538667 5.0430615312 0.1130134419
C 1.1101237789 4.3546040775 0.0514131182
C 1.0980180929 2.9656702396 0.0229057042
N -0.0491289959 2.2400025929 0.0461979221
C -1.2223271719 2.9176912904 0.1109021309
C -1.2893821344 4.3047500479 0.1469313165
H -0.1264736581 6.1285655278 0.1342746438
H 2.0581905298 4.8826402198 0.0248812946
H 2.0169528709 2.3975670626 -0.0120252501
H -2.1204678403 2.3190585011 0.1310228175
H -2.2580327940 4.7915852151 0.1971771370
C 5.0318733129 -0.0778571579 -0.0124701146
C 4.3131997930 -0.3775451767 1.1468311618
C 2.9251742929 -0.3371530769 1.1117501990
N 2.2269802856 -0.0236041886 -0.0086135699
C 2.9333712469 0.2568524717 -1.1329797191
C 4.3221704941 0.2448736285 -1.1713909798
H 6.1177368093 -0.0976587050 -0.0135682412
H 4.8164414798 -0.6406802209 2.0712528305
H 2.3411217142 -0.5734299041 1.9900724957
H 2.3546455261 0.5002479679 -2.0133469746
H 4.8329903805 0.4820034567 -2.0987688399
C -0.0475618381 -5.0628128609 -0.0807584483
C -1.2407753587 -4.3396549813 -0.0198592193
C -1.1909201754 -2.9511250825 -0.0035542537
N -0.0262272937 -2.2555065542 -0.0461070129
C 1.1270114456 -2.9678036291 -0.1158610580
C 1.1559291204 -4.3562930230 -0.1310093473
H -0.0545376273 -6.1488285655 -0.0899935751
H -2.2023640272 -4.8410157162 0.0166770009
H -2.0943996930 -2.3613954378 0.0482637086
H 2.0402038185 -2.3934257893 -0.1668521215
H 2.1105342885 -4.8692002397 -0.1806998564
C -5.0539619820 0.0038662743 0.0067507302
C -4.3436846518 -0.0632027951 -1.1941837816
C -2.9546861100 -0.0720473773 -1.1583678105
N -2.2509713199 -0.0181671323 0.0005849220
C -2.9493727081 0.0435317875 1.1631435750
C -4.3377253856 0.0561521090 1.2052876799
H -6.1398464943 0.0145572184 0.0089034934
H -4.8550067967 -0.1078784263 -2.1503712467
H -2.3722238058 -0.1242320537 -2.0673693827
H -2.3611010395 0.0881618522 2.0686942591
H -4.8441846715 0.1070033698 2.1636955944
C 0.1598252156 -0.0261930099 5.0338264919
C 0.3123852904 1.1637596402 4.3198103382
C 0.2443830265 1.1333536687 2.9327129503
N 0.0303014668 -0.0078230522 2.2317494208
C -0.1198141068 -1.1602975777 2.9339808949
C -0.0609080780 -1.2078873844 4.3212161751
H 0.2115105727 -0.0335603439 6.1186305571
H 0.4832166469 2.1085607723 4.8253567611
H 0.3655483441 2.0367896126 2.3538983425
H -0.2902409560 -2.0539990621 2.3495675316
H -0.1852878858 -2.1588123756 4.8290475962
C 0.0594669190 0.1410453721 -5.0440932391
C 0.1676171326 -1.0760603858 -4.3671784703
C 0.1424750007 -1.0820265776 -2.9776367507
N 0.0075697057 0.0493933150 -2.2410832609
C -0.0984089979 1.2272872676 -2.9079374972
C -0.0741249479 1.3117912837 -4.2939115098
H 0.0796022876 0.1771325901 -6.1293485642
H 0.2731083345 -2.0130093639 -4.9047402369
H 0.2277647219 -2.0050700573 -2.4217505254
H -0.2048960831 2.1135088340 -2.2995106726
H -0.1564064731 2.2828207304 -4.7711196401
