37
# extracted from Terachem optimization
Fe -0.0060190121 -0.0005289282 -0.0004892600
N 0.1044287171 2.0488915952 0.0252655172
N 2.0434700333 0.1171235386 -0.0299801103
C 2.4630960755 1.5292602626 -0.3685464509
C 1.5190601255 2.4776741864 0.3426262718
H 1.6841632842 3.5151030436 0.0348974264
H 1.6473996448 2.4338783420 1.4281271068
H 2.4066951106 1.6446082528 -1.4549504623
H 3.5033008721 1.7023533627 -0.0748402904
H -0.1785144929 2.4700881967 -0.8653472160
H -0.5276648161 2.4806351532 0.7074110136
H 2.4688567775 -0.1503804275 0.8635502439
H 2.4772979039 -0.5223497497 -0.7038908366
N 0.0221488498 -2.0500038313 0.1107134208
N -0.0280962110 -0.1173410254 2.0488956746
C -0.3648289329 -1.5293646643 2.4703271987
C 0.3437151016 -2.4780609754 1.5245533622
H 0.0365192365 -3.5154334242 1.6909495545
H 1.4295781340 -2.4342000096 1.6497127208
H -1.4513708915 -1.6450472587 2.4173639684
H -0.0679620242 -1.7018770059 3.5097110288
H -0.8685944486 -2.4725798693 -0.1697894923
H 0.7031121355 -2.4809319345 -0.5232023479
H 0.8671251803 0.1502283168 2.4707070499
H -0.7003110422 0.5223882165 2.4849486105
N -2.0553896270 0.0205148284 -0.1108659468
N -0.1235873532 -0.0252069882 -2.0499290539
C -1.5348090867 -0.3659524202 -2.4705839112
C -2.4850583204 0.3403001012 -1.5246027620
H -3.5216611245 0.0302828068 -1.6904508437
H -2.4442569187 1.4262313299 -1.6501451221
H -1.6475101826 -1.4527828299 -2.4173969836
H -1.7085435507 -0.0697523478 -3.5099505433
H -2.4745526414 -0.8718432469 0.1696647510
H -2.4885527197 0.6998401931 0.5232927535
H 0.1416630427 0.8700139392 -2.4732054977
H 0.5178542341 -0.6963628247 -2.4851346098
