59
# extracted from Terachem optimization
Fe -0.0014307865 0.0016502188 -0.2610114050
O 0.0043184291 0.0016584340 1.9957797558
H 0.7903723024 -0.0323362777 2.5708015933
H -0.7743049680 0.0512996211 2.5798246392
C -0.1941238959 4.9920893638 -0.2004096040
C -0.5785178779 4.2843180584 -1.3413976035
C -0.5204285801 2.8960679367 -1.3276173762
N -0.1001116030 2.1944932344 -0.2469896937
C 0.2657262132 2.8890998991 0.8609941109
C 0.2312847745 4.2753222769 0.9220617645
H -0.2250272571 6.0774497964 -0.1841996905
H -0.9193591438 4.7979069898 -2.2341932345
H -0.8158333292 2.3185474979 -2.1928207227
H 0.5854166748 2.2993845104 1.7095940984
H 0.5337295124 4.7816683544 1.8331597611
C 4.9134912250 0.2419644542 0.5675788247
C 4.1730710650 -0.8693775612 0.9788516060
C 2.8096743199 -0.9090619147 0.7157493315
N 2.1555123265 0.0974050217 0.0807159398
C 2.8811231320 1.1778923256 -0.3060728694
C 4.2496972063 1.2799629288 -0.0911713434
H 5.9811856305 0.2982698148 0.7579996752
H 4.6427729397 -1.7021146524 1.4928271363
H 2.2136903354 -1.7635820311 1.0099482805
H 2.3382988723 1.9756320071 -0.7973225373
H 4.7803413722 2.1635425886 -0.4307456394
C 0.2194189037 -4.9968117413 -0.1308027972
C -0.2177921852 -4.2651009510 0.9770868386
C -0.2589048489 -2.8803680909 0.8959767358
N 0.1090481175 -2.1988215142 -0.2197570392
C 0.5420466703 -2.9146292434 -1.2863807995
C 0.6096152536 -4.3031171967 -1.2784772323
H 0.2556361026 -6.0817896877 -0.0990487571
H -0.5255790789 -4.7580797129 1.8930614847
H -0.5870957185 -2.2823551417 1.7352366176
H 0.8386825912 -2.3493074439 -2.1600643362
H 0.9622977794 -4.8275550247 -2.1605401194
C -4.9146611605 -0.2135211127 0.5939641003
C -4.1764234518 0.9148448879 0.9602186886
C -2.8144947037 0.9494015558 0.6902871287
N -2.1591098592 -0.0777412604 0.0909745706
C -2.8819797448 -1.1760950504 -0.2480579129
C -4.2490763175 -1.2758669388 -0.0231929084
H -5.9819923795 -0.2642034685 0.7875978973
H -4.6466554104 1.7640489483 1.4458581567
H -2.2209926253 1.8155006094 0.9511456627
H -2.3370583573 -1.9903285875 -0.7086555024
H -4.7754245822 -2.1768074921 -0.3224274779
C -0.0236647897 -0.0263659531 -5.2218623436
C 1.1687388743 0.1458622718 -4.5139836863
C 1.1376134734 0.1469072523 -3.1252955147
N -0.0121398943 -0.0156322194 -2.4201852742
C -1.1680356973 -0.1823267022 -3.1140619728
C -1.2099581161 -0.1919409539 -4.5025980288
H -0.0290468620 -0.0308021103 -6.3080835712
H 2.1161212378 0.2780676152 -5.0264851665
H 2.0471748471 0.2770064479 -2.5541970754
H -2.0740411855 -0.3048591335 -2.5357627142
H -2.1611261676 -0.3257959696 -5.0072519657
