13
# extracted from Terachem optimization
Fe -0.0000010436 -0.0000007252 -0.0000010318
C 0.0000034128 2.3119196803 0.0000034532
O -0.0000009530 3.4366109451 -0.0000003886
C 2.3369742227 -0.0000028478 -0.0081697714
O 3.4611154587 0.0000010796 0.0089245873
C -0.0000029608 -2.3119394521 -0.0000033870
O 0.0000005845 -3.4365908336 0.0000005105
C -2.3369243974 0.0000029838 0.0081691475
O -3.4611643318 -0.0000010063 -0.0089239589
C -0.0081547878 -0.0000024471 2.3370233156
O 0.0089292999 0.0000010333 3.4612821751
C 0.0081545330 0.0000030044 -2.3370032897
O -0.0089290427 -0.0000014048 -3.4613013632
