53
# extracted from Terachem optimization
Fe -0.0127452333 0.0131517706 0.0015686424
C 4.4600211317 -0.4368570956 -0.5642575950
C 4.7770728945 0.7660061004 -1.1703807795
C 3.7752596797 1.7563199873 -1.3156940028
C 4.0550347468 3.0492409568 -1.8575700201
C 3.0860198573 4.0200562498 -1.8893662474
C 1.7759845549 3.7613664213 -1.3792805080
C 0.7849097430 4.7699932190 -1.2998118927
C -0.4370275445 4.4758039071 -0.7221910212
C -0.6752729807 3.1706047810 -0.2738521528
N 0.2170597981 2.1721994128 -0.3763197809
C 1.4486513253 2.4664926752 -0.8902420268
C 2.4634177191 1.4475638270 -0.8614847074
N 2.1467856394 0.2297319463 -0.3272510106
C 3.1390570057 -0.6606617221 -0.1578649613
H 5.2101143311 -1.2030654018 -0.3997367561
H 5.7891699300 0.9678547043 -1.5106863679
H 5.0563868755 3.2606948674 -2.2207276390
H 3.3116681520 5.0083971224 -2.2786757034
H 1.0002691002 5.7692211032 -1.6685969462
H -1.2071794380 5.2314916120 -0.6101087690
H -1.6205144442 2.9339572342 0.1975667202
H 2.8811082020 -1.5893963118 0.3352822109
C -4.4754417287 0.4366768196 0.7264506384
C -4.7692213620 -0.7850431225 1.3047469253
C -3.7604104753 -1.7759283295 1.3842584516
C -4.0187051085 -3.0858052654 1.8949407522
C -3.0477747096 -4.0547170505 1.8630776465
C -1.7551166047 -3.7749783728 1.3205628150
C -0.7647635473 -4.7767280623 1.1750502371
C 0.4377541180 -4.4597321606 0.5682141716
C 0.6612364959 -3.1388332453 0.1614102904
N -0.2291359955 -2.1465949318 0.3310662619
C -1.4467036249 -2.4632298954 0.8658433648
C -2.4657684196 -1.4485981448 0.8946018028
N -2.1718749606 -0.2172413590 0.3799416611
C -3.1704617323 0.6748918883 0.2774578831
H -5.2312954304 1.2066562080 0.6142965335
H -5.7682841637 -1.0004027708 1.6739815705
H -5.0068570802 -3.3114595837 2.2847278029
H -3.2589673573 -5.0559721260 2.2266576134
H -0.9663342535 -5.7887492489 1.5157465058
H 1.2039372538 -5.2098024864 0.4034665573
H 1.5897216100 -2.8809149547 -0.3322298476
H -2.9341794018 1.6198946277 -0.1946298574
N 0.2620637433 0.3374100390 2.1699614858
H -0.1792680382 1.2008028019 2.4958259489
H -0.0866971068 -0.4090528884 2.7755981534
H 1.2582056254 0.4372200007 2.3788175750
N -0.3372476371 -0.2618117088 -2.1667228256
H -1.2006578101 0.1795531204 -2.4924929717
H 0.4091419343 0.0867406316 -2.7725745297
H -0.4372267602 -1.2579779567 -2.3753832961
