57
# extracted from Terachem optimization
Fe -0.0115218513 -0.0107624008 0.0030093488
C 0.0147780614 -0.1174230509 1.9530883858
N 0.0476234227 -0.1477069321 3.1182562095
C 0.1010924686 -0.1650064899 4.5475762375
H 0.7342857841 -0.9926703109 4.8771166503
H -0.9079698065 -0.2927204087 4.9474819335
H 0.5186776748 0.7801457642 4.9043439346
C -0.0067356122 0.1443637735 -1.9414777165
N 0.0157502397 0.2674540962 -3.1006489007
C 0.0583378749 0.4373186673 -4.5198133026
H -0.6596645966 -0.2393639428 -4.9892858552
H 1.0647504122 0.2106396207 -4.8803324321
H -0.1951942013 1.4711502269 -4.7680218889
C -0.0196309806 4.8728603101 0.3161840611
C 0.8348897847 4.1082807511 1.1100870528
C 0.8084507595 2.7229837404 0.9900986568
N -0.0116773798 2.0713496141 0.1380447129
C -0.8350398122 2.8214067562 -0.6263636891
C -0.8693221854 4.2105522311 -0.5693438296
H -0.0217108671 5.9561784822 0.3853863779
H 1.5176713954 4.5714091022 1.8147191424
H 1.4684050340 2.1055071642 1.5870852941
H -1.4906672060 2.2807008540 -1.2983295008
H -1.5531346428 4.7568185373 -1.2105884220
C 4.8857452569 -0.0779421575 -0.0763914729
C 4.1723213200 -0.9509266080 0.7448499093
C 2.7823909488 -0.8928648028 0.7458741790
N 2.0796393490 -0.0241274414 -0.0129943760
C 2.7811111720 0.8207056683 -0.7992052567
C 4.1702121223 0.8258000874 -0.8610865761
H 5.9707542452 -0.1004245343 -0.1048739492
H 4.6790274796 -1.6719411908 1.3780376424
H 2.2014006210 -1.5679767796 1.3629074681
H 2.2009924682 1.5192460219 -1.3895811381
H 4.6750130830 1.5269628929 -1.5171397723
C -0.0477268307 -4.8889083026 -0.3014334089
C -0.8501626167 -4.2225198808 0.6240938379
C -0.8080762499 -2.8336522663 0.6772793546
N -0.0212850311 -2.0880696818 -0.1284734758
C 0.7540964663 -2.7431331240 -1.0188238191
C 0.7695901878 -4.1288645925 -1.1376395213
H -0.0594587371 -5.9721660986 -0.3699495257
H -1.5035575373 -4.7648143182 1.2990550286
H -1.4276757839 -2.2877123690 1.3784029304
H 1.3828629084 -2.1285000295 -1.6516117842
H 1.4132546716 -4.5968862000 -1.8750079441
C -4.9042961422 -0.0783814814 0.0338883992
C -4.1825123847 -0.8158451757 -0.9042833754
C -2.7929283429 -0.7588707629 -0.8827374806
N -2.0976826673 -0.0204736920 0.0092488832
C -2.8065698192 0.6932093634 0.9102851180
C -4.1968766671 0.6928145875 0.9556790545
H -5.9895852910 -0.1041651765 0.0462699193
H -4.6828960246 -1.4301079793 -1.6455119220
H -2.2064366156 -1.3251494862 -1.5961290269
H -2.2330083231 1.2838319409 1.6143967880
H -4.7100891278 1.2873171838 1.7041059926
