27
# extracted from Terachem optimization
Fe -0.0006202914 0.0001433634 -0.0815211717
O 0.3338928619 2.0881640611 0.0352967974
H 1.1895589850 2.4911551260 0.2768645251
H -0.3614224869 2.7455669154 0.2289981387
O 2.0433488970 -0.3131963372 0.2158381581
H 2.8173868083 -0.4730626114 -0.3560151948
H 2.3454284902 -0.3770971121 1.1414714648
O -0.3403942950 -2.0998533566 -0.0165610898
H 0.3538544374 -2.7608889865 0.1694460724
H -1.1968321523 -2.5069893532 0.2169545759
O -2.0472781575 0.3103679414 0.1938297342
H -2.3683190903 0.3902941598 1.1118506218
H -2.8218122133 0.4056141761 -0.3918095677
O 0.0025193821 -0.0650668175 2.2044398591
H -0.1542157385 -0.8405521393 2.7763278051
H 0.1563849358 0.6738214950 2.8237011550
C -0.0288375323 0.0109153700 -5.2292751694
C 0.2870170784 1.1786511233 -4.5108053055
C 0.3025252062 1.1543211051 -3.0686606590
N 0.0388289960 0.0572720909 -2.3571764492
C -0.2519269339 -1.0754445195 -3.0678555229
C -0.3017163809 -1.1331184372 -4.4958864952
H -0.0517913870 0.0139733225 -6.3163221220
H 0.5158562295 2.1126922150 -5.0200118181
H 0.5304925209 2.0606058282 -2.5162284071
H -0.4449628066 -1.9660232138 -2.4776540234
H -0.5449342288 -2.0796719427 -4.9726499682
