52
# extracted from Terachem optimization
Fe -0.0287225497 0.0427166008 -0.0250405277
C 0.0523163143 0.0210399168 1.9169796468
N 0.1117230691 -0.0025209269 3.0758987520
C 0.1980504866 -0.0310397018 4.5065228686
H 0.8108030563 -0.8839764070 4.8077936056
H -0.8067983866 -0.1322406290 4.9237131329
H 0.6550877704 0.8996786703 4.8506173557
O -0.0453194011 2.1111450177 0.0199735614
C 1.0114138907 2.9203235557 0.4589585886
C 0.6061997265 4.2068333625 0.4925507104
C -0.7691351628 4.2360902548 0.0650545194
C -1.1359720777 2.9654449605 -0.2058989225
H 1.9324983828 2.4055671423 0.6710202387
H 1.2125659507 5.0539951342 0.7822938930
H -2.0380042842 2.4885809197 -0.5492822448
H -1.3989000675 5.1103578305 -0.0272308452
O 2.0607781492 0.0645302535 -0.1475660430
C 2.9845440229 -0.4086420679 0.7967742559
C 4.2216422212 -0.4070640103 0.2585977288
C 4.1012416926 0.0839230783 -1.0901244318
C 2.7974784110 0.3557883502 -1.3075311779
H 2.5747150242 -0.6978732155 1.7483402593
H 5.1307015989 -0.7168696238 0.7556583221
H 2.2368543743 0.7575048051 -2.1334648739
H 4.9031058447 0.2189824489 -1.8030500687
O -0.0027482873 -2.0242083939 0.0034405194
C -0.9483968657 -2.8100282520 0.6763886757
C -0.4799806303 -4.0697276970 0.7941052594
C 0.8245316593 -4.1028999200 0.1821033402
C 1.0885556903 -2.8612009081 -0.2763324131
H -1.8584766017 -2.3057273167 0.9536604715
H -0.9992747392 -4.8997680075 1.2532852443
H 1.9104058095 -2.3962688906 -0.7939450897
H 1.4757920344 -4.9617901912 0.0954644910
O -2.0989763751 0.0218305283 -0.0246850572
C -2.9533351804 0.3959866483 1.0233699012
C -4.2293116281 0.1193892911 0.6819001071
C -4.2054398067 -0.4588769539 -0.6376945568
C -2.9172400524 -0.5039783435 -1.0362348817
H -2.4788361370 0.8594927549 1.8710505898
H -5.1033213432 0.3103456951 1.2896250387
H -2.4041124809 -0.8430152354 -1.9195794154
H -5.0583520645 -0.7902740243 -1.2137097089
O -0.0988423086 0.0561892846 -2.1269387943
C -0.0243749536 -1.0534414929 -2.9819929021
C -0.0565782868 -0.6361504084 -4.2654690483
C -0.1521500519 0.8004652522 -4.2468262777
C -0.1797761318 1.1859998433 -2.9530435492
H 0.0401434473 -2.0096163739 -2.4925422250
H -0.0200614402 -1.2728616764 -5.1389317848
H -0.2528313400 2.1298366988 -2.4411572987
H -0.1968759522 1.4581727306 -5.1039457384
