48
# extracted from Terachem optimization
Fe 0.0325523879 0.0041731490 -0.1148342274
C 0.0762471217 -0.0148726169 1.7884584734
O 0.1131158174 -0.0237703169 2.9194951425
O -0.0291249668 2.0637997735 -0.1462430457
C 0.3154291228 2.9631837131 0.8832671340
C -0.0807554634 4.2053233906 0.5386936625
C -0.7088565691 4.1169311064 -0.7556736013
C -0.6651565021 2.8260284771 -1.1424758201
H 0.8622170953 2.5495044984 1.7146365521
H 0.0641186599 5.1002666010 1.1288358947
H -0.9993423181 2.2793501070 -2.0072387645
H -1.1316353212 4.9337515342 -1.3247833198
O 2.0956587632 0.0529274025 -0.0800741946
C 2.9144992415 -0.9671514299 0.4402906335
C 4.1722574422 -0.5018656637 0.5766488134
C 4.1771101279 0.8711571219 0.1385048884
C 2.9210673144 1.1822456321 -0.2422097041
H 2.4271571010 -1.9121536706 0.6091923315
H 5.0190118846 -1.0671765621 0.9414823735
H 2.4375128677 2.0611882676 -0.6322521495
H 5.0291016837 1.5369181243 0.1095074228
O 0.0906179807 -2.0590719969 -0.1899944409
C -0.2560635403 -2.9822158715 0.8164232974
C -0.0851248376 -4.2359115901 0.3507013343
C 0.3857575158 -4.1321836580 -1.0074804388
C 0.4830017207 -2.8209460687 -1.3071619807
H -0.6142570955 -2.5671089744 1.7437828289
H -0.2725906863 -5.1463210175 0.9039678491
H 0.8011436790 -2.2603579615 -2.1685322815
H 0.6215904516 -4.9505203778 -1.6744260127
O -2.0194328328 -0.0553068653 -0.0348183492
C -2.8045786015 0.8795361164 0.6676422909
C -4.0328070453 0.3637618560 0.8730155068
C -4.0510427642 -0.9573763061 0.2964081272
C -2.8315220248 -1.1890991503 -0.2308542144
H -2.3288475348 1.8224279941 0.8784284499
H -4.8523269461 0.8644221944 1.3704409801
H -2.3701787613 -2.0117165007 -0.7500051104
H -4.8875864205 -1.6428124369 0.2776750099
O 0.0094896427 0.0356633175 -2.1815750071
C -1.1142358984 -0.0763836201 -3.0198639761
C -0.7221021095 0.0285639520 -4.3066785455
C 0.7070140976 0.2129277836 -4.3105707289
C 1.1189559229 0.2151454538 -3.0259001305
H -2.0557351139 -0.2252363345 -2.5204819355
H -1.3711668803 -0.0206878183 -5.1704547510
H 2.0669249439 0.3197746316 -2.5277289162
H 1.3428804484 0.3308543802 -5.1775719272
