62
# extracted from Terachem optimization
Mn 0.0152231810 0.0012497905 0.0657475530
C 0.0973063217 -0.0558705268 -1.8915780704
N 0.1548669002 -0.1605932265 -3.0553058659
C 0.1946733633 -0.3148166220 -4.4755159257
H -0.4495001036 -1.1486010068 -4.7670801038
H 1.2199641864 -0.5214533368 -4.7932233690
H -0.1579559684 0.6037004825 -4.9522511381
C -0.6057053296 4.9626215121 -0.0271304489
C -1.2041639044 4.1716770859 0.9530688620
C -0.9707064416 2.8013182023 0.9488244726
N -0.1877413061 2.1793016848 0.0393508061
C 0.3786523970 2.9584110171 -0.9065813347
C 0.2022685257 4.3368336065 -0.9753404184
H -0.7684850682 6.0358553789 -0.0524189020
H -1.8445511200 4.6036458144 1.7151984253
H -1.4233304689 2.1688016633 1.7005007583
H 0.9899900806 2.4562041703 -1.6443530461
H 0.6909046992 4.9019783839 -1.7619613976
C 5.0179664018 -0.0304195799 0.1554692931
C 4.2642685026 -0.6525777343 1.1495179986
C 2.8761345057 -0.6109427276 1.0736439864
N 2.2015428321 0.0064344054 0.0757467230
C 2.9480051829 0.5856105548 -0.8899539023
C 4.3384480032 0.5968317670 -0.8878964562
H 6.1030788531 -0.0422576444 0.1878448200
H 4.7375204348 -1.1689901097 1.9779296194
H 2.2758695186 -1.0996548155 1.8294376748
H 2.4085151697 1.0460560073 -1.7062604241
H 4.8710858998 1.0830624136 -1.6983573379
C -0.1577884543 -4.9463669256 -0.4963027676
C -1.2704696270 -4.2451136007 -0.0334299709
C -1.1761921861 -2.8685495584 0.1425694236
N -0.0510927370 -2.1622705554 -0.1088974132
C 1.0132272279 -2.8520539531 -0.5752686412
C 1.0041824023 -4.2282204594 -0.7754615752
H -0.1974428650 -6.0215624061 -0.6410541490
H -2.2042125153 -4.7509420317 0.1894091997
H -2.0268021069 -2.2992358802 0.4925952416
H 1.8962162216 -2.2676018642 -0.7949644043
H 1.8962859215 -4.7203074835 -1.1480219297
C -4.9861950694 0.3126920637 0.0939567609
C -4.2878652940 0.1373642554 1.2889019572
C -2.9018193267 0.0285032311 1.2511108930
N -2.1779139046 0.0812618631 0.1089215060
C -2.8705512022 0.2551354851 -1.0379055952
C -4.2558735585 0.3735085836 -1.0911950729
H -6.0685482380 0.3983331668 0.0874932973
H -4.8040623545 0.0832278179 2.2419018371
H -2.3375796580 -0.1095327574 2.1640174146
H -2.2846902514 0.3001377590 -1.9454339676
H -4.7446812183 0.5081663366 -2.0504418477
C 0.5948796822 -0.0849705183 5.0115808433
C 0.9844399911 1.0166156437 4.2502787413
C 0.7565330886 1.0029612091 2.8778380483
N 0.1542985336 -0.0210884825 2.2314252155
C -0.2006082419 -1.0898173769 2.9807062865
C -0.0028942906 -1.1622414437 4.3565811513
H 0.7591696270 -0.1060427049 6.0845101753
H 1.4635657298 1.8779868305 4.7049350365
H 1.0749136984 1.8339424864 2.2613316668
H -0.6525431038 -1.9167806156 2.4468519843
H -0.3145930347 -2.0496388071 4.8978273417
