51
# extracted from Terachem optimization
Mn -0.1010932917 0.0708168002 -0.0230346502
N 0.1118811218 2.3473792898 0.4584743008
N 2.1996872748 0.3899616813 0.0235455685
C 2.5022343273 1.8462193185 0.0599017581
C 1.5028891471 2.5687989320 0.9571722995
H 1.7519721419 3.6346700407 1.0039885636
H 1.5561162430 2.1733616912 1.9774488803
H 2.4321231360 2.2276044858 -0.9652443800
H 3.5207409999 2.0484361717 0.4103168615
H -0.0189599862 2.9107355266 -0.3853009823
H -0.5542545948 2.7359558857 1.1279597805
H 2.5294945010 -0.0488207184 0.8858449465
H 2.7323485517 -0.0572940615 -0.7232813265
N 0.2561884371 -2.1945907151 0.0098192601
N -0.3287923906 -0.6449862402 2.1422667149
C 0.6114952936 -2.9246874455 -1.0636268865
H 0.6139602843 -2.3985621433 -2.0141606603
C 0.9617047086 -4.2650161182 -1.0053620489
H 1.2387886339 -4.7914608372 -1.9134576556
C 0.9597073386 -4.9187966635 0.2359109712
C 0.5905980626 -4.1559832600 1.3507034252
H 0.5937580084 -4.6273901475 2.3261744163
C -0.4017074418 -2.5078030683 3.6518765818
H -0.2954229719 -3.5721694623 3.8242981635
C -0.7871725345 -1.6917728964 4.7228503343
C -0.9380989712 -0.3236933910 4.4530664140
H -1.2397729925 0.3691588406 5.2324222207
C -0.7036511093 0.1412174670 3.1678710529
H -0.8234190535 1.1961001657 2.9379278794
C 0.2368970512 -2.8095766921 1.2187884087
C -0.1718822466 -1.9708129496 2.3816013023
C -1.0198787700 -2.2508141525 6.0987005019
C 1.3283593705 -6.3708738920 0.3574187335
H 0.5443294295 -7.0003668552 -0.0818153396
H 1.4577343662 -6.6726870540 1.3995517865
H 2.2544223558 -6.5879610027 -0.1851627787
H -1.0935567088 -3.3409573796 6.0878530297
H -1.9352476888 -1.8436274662 6.5400095320
H -0.1920458331 -1.9757376489 6.7645310970
N -2.4117001722 -0.1844166113 -0.2305484041
N -0.5053543929 0.3302974144 -2.3095946244
C -1.8333752942 -0.2757754763 -2.6266197024
C -2.8684892876 0.1726606676 -1.6002156505
H -3.8417967719 -0.2685211993 -1.8429859959
H -2.9885963717 1.2613606406 -1.6384678974
H -1.7175047606 -1.3645047655 -2.5945457700
H -2.1695032703 -0.0097243409 -3.6347683156
H -2.5755039811 -1.1805920477 -0.0672526047
H -2.9843489347 0.2972123031 0.4633561198
H -0.5406093186 1.3233642606 -2.5518225937
H 0.2024081852 -0.0591023530 -2.9344405964
