47
# extracted from Terachem optimization
Mn -0.0049151128 0.0007543495 -0.0380308036
C 0.2665914912 2.3560970598 -0.1355200318
N 0.4175808775 3.5048938894 -0.2405793483
C 0.6030440527 4.9164028121 -0.3756086047
H 1.2636040089 5.1115309557 -1.2237617882
H 1.0511144177 5.3093424551 0.5400594530
H -0.3667455514 5.3903637885 -0.5451799314
C 2.3590125151 -0.2168693083 0.0973149606
N 3.5124204928 -0.2160414536 0.2509040401
C 4.9284553963 -0.1998923192 0.4498308375
H 5.3817373556 -1.0166770908 -0.1167902017
H 5.1422511955 -0.3249429299 1.5141127555
H 5.3276225607 0.7564086619 0.1031297461
C -0.2732068306 -2.3535136393 -0.1374938628
N -0.4231129599 -3.5027687748 -0.2387889482
C -0.6062068388 -4.9153627604 -0.3665218604
H -1.2670395651 -5.1164538877 -1.2131620167
H -1.0531246576 -5.3037537371 0.5517056318
H 0.3645466406 -5.3883475092 -0.5338570545
C -2.3650430140 0.2167579193 0.1066523382
N -3.5188107607 0.2101592902 0.2570848462
C -4.9350541602 0.1846480370 0.4535909928
H -5.3889060999 -0.4747502318 -0.2901778563
H -5.3324416544 1.1962410572 0.3420469016
H -5.1488413836 -0.1888178595 1.4579656932
C 0.0279741250 0.0043944310 5.0650264607
C -0.5020875073 1.0826779978 4.3557544096
C -0.4929690506 1.0382132290 2.9655034490
N 0.0067248570 -0.0001394344 2.2663815404
C 0.5164899717 -1.0365474202 2.9610743219
C 0.5465420105 -1.0764786353 4.3511154768
H 0.0359053265 0.0061495464 6.1507744812
H -0.9147451011 1.9455247705 4.8677768592
H -0.8964390338 1.8599098653 2.3809079279
H 0.9101091286 -1.8603047979 2.3727685503
H 0.9682447957 -1.9367950705 4.8597954176
C -0.0170896368 0.0010344527 -5.1255942032
C 0.9124018844 -0.7607774585 -4.4161388307
C 0.8800997074 -0.7305369503 -3.0259812820
N -0.0086675853 0.0042226287 -2.3280871015
C -0.8998752441 0.7396794061 -3.0221815263
C -0.9404610191 0.7667733481 -4.4122681287
H -0.0224279719 -0.0026040212 -6.2115527406
H 1.6523840424 -1.3675036989 -4.9274270902
H 1.5873807977 -1.3115385788 -2.4410768242
H -1.6034489196 1.3225860436 -2.4345852682
H -1.6795085827 1.3770396098 -4.9209151240
