87
# extracted from Terachem optimization
Mn -0.0721623221 -0.0299484994 -0.1339059867
C 0.2241968039 1.9864941140 -0.4434649233
N 0.3864414316 3.1233888152 -0.6016065452
C 1.9828408424 4.7627355955 -1.4945851515
C 3.1509478844 4.8631713197 -0.7230437569
C 4.3726332191 5.1152104320 -1.3439127274
C 4.4325024354 5.2631269468 -2.7337239278
C 3.2691132283 5.1599566155 -3.5044562034
C 2.0448967390 4.9062365191 -2.8877278601
H 3.1003954392 4.7803298956 0.3603821129
H 5.2725779855 5.2210937914 -0.7460723565
H 3.3147141813 5.3004644277 -4.5799286863
H 1.1369418861 4.8567276559 -3.4842657166
H 5.3821702395 5.4770723485 -3.2145802184
C 0.6485641025 4.5427562761 -0.8174822885
H -0.1897558819 4.9146062101 -1.4141314610
H 0.6001519707 5.0074589772 0.1724448649
C 1.9418619681 -0.3642755975 -0.4605665562
N 3.0707220011 -0.5438862242 -0.6537637045
C 4.9363434380 -2.0351496036 -0.0812161129
C 5.4784061126 -1.8745081711 1.2014765920
C 5.9355269845 -2.9879508388 1.9050820854
C 5.8485044001 -4.2617451804 1.3323654432
C 5.3054270388 -4.4236131364 0.0539220063
C 4.8463920929 -3.3134238898 -0.6529104438
H 5.5781519947 -0.8813058696 1.6333185229
H 6.3819474110 -2.8623882590 2.8866637238
H 5.2623321691 -5.4094930758 -0.3984719454
H 4.4509946152 -3.4358969075 -1.6586956225
H 6.2210353860 -5.1250538392 1.8752817410
C 4.4875209063 -0.8239346296 -0.8673378165
H 4.6030489453 -0.9595661329 -1.9472567445
H 5.0192062901 0.0866578210 -0.5750321337
C -0.3518829469 -2.0415444189 0.2232751979
N -0.4833413213 -3.1733284101 0.4371366010
C -2.1668812720 -4.9376095347 0.7497401214
C -2.8843194611 -4.8255054271 1.9507310490
C -4.2262706656 -5.1975324725 1.9940722106
C -4.8561234819 -5.6766355392 0.8402797891
C -4.1431132418 -5.7853771529 -0.3590583500
C -2.8007396804 -5.4135441135 -0.4070370204
H -2.3872009401 -4.4834137653 2.8556740736
H -4.7747963475 -5.1375909237 2.9289282144
H -4.6278930894 -6.1806279302 -1.2463121296
H -2.2394296390 -5.5295440663 -1.3313681232
H -5.8971984680 -5.9823534830 0.8794355069
C -0.6957316954 -4.5905306891 0.7147241671
H -0.1573231571 -5.1322371828 -0.0688626051
H -0.1976748126 -4.7811662169 1.6705346882
C -2.0932908891 0.3014814059 0.1465116565
N -3.2306678321 0.4733347770 0.2913102602
C -4.8919566518 2.2026908207 0.8203371432
C -4.9632643929 2.6018702977 2.1623826501
C -5.2322145689 3.9331434826 2.4764726752
C -5.4246072199 4.8680535964 1.4529980105
C -5.3505644890 4.4717679078 0.1137051924
C -5.0820384451 3.1419003500 -0.2048549384
H -4.8479248602 1.8698965948 2.9585541518
H -5.3166516742 4.2384700385 3.5148313742
H -5.5252064309 5.1935059479 -0.6781734162
H -5.0542724267 2.8291175641 -1.2462317029
H -5.6504296909 5.9009108319 1.7002139347
C -4.6520283852 0.7496981514 0.4776341593
H -5.1361855717 0.4543682954 -0.4585365454
H -4.9871527832 0.0716827519 1.2683528329
C 0.7836364006 0.6777712389 4.8601799103
C 1.4990271008 -0.2833484308 4.1436071460
C 1.2352955529 -0.4437052870 2.7879702668
N 0.3124935213 0.2890937661 2.1274771669
C -0.3737604611 1.2170112447 2.8294805119
C -0.1702926747 1.4421585805 4.1861443718
H 0.9659502081 0.8280588770 5.9199457448
H 2.2503974603 -0.9003796149 4.6250353249
H 1.7808367589 -1.1805315352 2.2054775548
H -1.1109534474 1.7958736789 2.2809618971
H -0.7488148651 2.2018636709 4.7011686358
C -0.9352436783 -0.7618694234 -5.1213333591
C 0.0832110378 0.0909610662 -4.6918371967
C 0.2843863618 0.2612399585 -3.3267611906
N -0.4615265468 -0.3639481951 -2.3901781259
C -1.4445762941 -1.1865627126 -2.8161850293
C -1.7132827210 -1.4115563751 -4.1614493251
H -1.1186353122 -0.9163644194 -6.1802908998
H 0.7132923311 0.6171533922 -5.4012416589
H 1.0673580803 0.9208793038 -2.9641857451
H -2.0328370028 -1.6795731522 -2.0478027466
H -2.5163317783 -2.0825615138 -4.4478761787
