75
# extracted from Terachem optimization
Mn -0.0317013843 0.0183960658 0.0158307062
C 0.2924066947 2.3175461957 0.4019987535
N 0.4007898009 3.4665793019 0.5817980658
C 0.5214855322 4.8365415265 0.7926695068
C -0.6170840071 5.6460884898 0.6826464144
C -0.4861249790 7.0156472762 0.8945231063
C 0.7606318256 7.5635013328 1.2100642302
C 1.8874013681 6.7430098350 1.3161715538
C 1.7779518829 5.3709140626 1.1084455717
H -1.5764978593 5.2036945411 0.4360817263
H -1.3585703166 7.6559025493 0.8127233828
H 2.8536616195 7.1719365329 1.5613781863
H 2.6421092522 4.7195259303 1.1875837868
H 0.8541519278 8.6324625572 1.3739762596
C 2.2583640740 -0.3882146676 0.3578292467
N 3.3826274526 -0.6672850564 0.5075633697
C 4.7207305679 -1.0039789943 0.6851901488
C 5.0778003885 -1.8485937862 1.7448840839
C 6.4198500242 -2.1783163810 1.9129800404
C 7.3848411686 -1.6723787766 1.0371576655
C 7.0128778609 -0.8312339208 -0.0155627477
C 5.6764240990 -0.4893985205 -0.2012716280
H 4.3154171151 -2.2327818376 2.4145054609
H 6.7125969255 -2.8314745498 2.7287482264
H 7.7647787669 -0.4408274320 -0.6938432958
H 5.3694285813 0.1612348544 -1.0133532646
H 8.4291755018 -1.9342420843 1.1753518859
C -0.3221859795 -2.2846773405 -0.3777879676
N -0.3765705032 -3.4352236963 -0.5721197741
C -0.4289337823 -4.8042306839 -0.8144735505
C -1.1900356228 -5.6205532454 0.0327140308
C -1.2345676404 -6.9886351986 -0.2205805738
C -0.5310221901 -7.5282703519 -1.3012992540
C 0.2245126429 -6.7009157004 -2.1372454033
C 0.2826096852 -5.3303273240 -1.9012909216
H -1.7290074446 -5.1852949334 0.8676125032
H -1.8196482226 -7.6341547334 0.4265359007
H 0.7699209715 -7.1235482260 -2.9749444377
H 0.8654336663 -4.6733904653 -2.5384487293
H -0.5711114051 -8.5961341889 -1.4920133948
C -2.3237065782 0.4134796375 -0.3214860132
N -3.4559110811 0.6570092710 -0.4732222619
C -4.8048447172 0.9487645848 -0.6490308158
C -5.5453573242 1.4295862917 0.4393674210
C -6.8948377057 1.7162590287 0.2542558783
C -7.4909062564 1.5250337181 -0.9957458724
C -6.7387525840 1.0453266883 -2.0720430504
C -5.3877135552 0.7528309959 -1.9081052598
H -5.0661083658 1.5714034209 1.4024732851
H -7.4821155068 2.0888091182 1.0874154040
H -7.2050774424 0.8987850964 -3.0410202675
H -4.7881150328 0.3809667631 -2.7322138602
H -8.5440125980 1.7503937212 -1.1316737080
C -0.9163165812 -0.7139782481 4.9857742377
C 0.1354445693 0.0982989993 4.5613272375
C 0.3413023631 0.2669881534 3.1958052849
N -0.4292697599 -0.3196035266 2.2595606442
C -1.4426176781 -1.1019001325 2.6790274273
C -1.7206876021 -1.3255185764 4.0235743195
H -1.1056801350 -0.8666402640 6.0439722132
H 0.7865791840 0.5954354952 5.2726262658
H 1.1488302876 0.8936120407 2.8290675086
H -2.0485250716 -1.5597674402 1.9023960703
H -2.5505386701 -1.9647183403 4.3063281519
C 0.8013899225 0.7807992165 -4.9613485910
C 1.5761667464 1.4330078563 -4.0020070321
C 1.3172749234 1.1916229778 -2.6566950692
N 0.3503684673 0.3548370248 -2.2334418706
C -0.3918349676 -0.2708645653 -3.1673602833
C -0.2023775394 -0.0887142699 -4.5335080997
H 0.9757817216 0.9468204591 -6.0200883752
H 2.3667334977 2.1191699610 -4.2871219228
H 1.8978696557 1.6844859936 -1.8824901948
H -1.1622998836 -0.9412602674 -2.7977614237
H -0.8295684457 -0.6182566320 -5.2430115021
