39
# extracted from Terachem optimization
Mn 0.0007022657 0.0013160039 -0.3462245924
O -0.0004663620 0.0022055159 2.0731359723
H 0.7608733489 0.1234684439 2.6687595677
H -0.7632372725 -0.1123198626 2.6682826117
C 0.0041919401 2.0887316138 -0.0218379879
N 0.0069696928 3.2249371039 0.1974019259
C 0.0094740099 4.6352376219 0.4723492598
H 0.8470871812 5.0936620473 -0.0605261273
H 0.1186866530 4.7810731811 1.5506007175
H -0.9366927176 5.0595495787 0.1253549218
C 2.0524732989 -0.0030037480 -0.2304380866
N 3.2054863804 -0.0043279761 -0.1453174150
C 4.6374998358 -0.0071617809 -0.0281900447
H 5.0344484082 -0.8330421075 -0.6248406901
H 4.8982831565 -0.1383061922 1.0258976834
H 5.0198871259 0.9477033379 -0.3994451793
C -0.0026909340 -2.0859059702 -0.0210332834
N -0.0057657470 -3.2222645903 0.1978174204
C -0.0087695374 -4.6326387610 0.4722960517
H -0.8465651574 -5.0906251977 -0.0607214969
H -0.1181077594 -4.7786458484 1.5504999211
H 0.9373106365 -5.0571939745 0.1253110295
C -2.0510520843 0.0034544556 -0.2313789050
N -3.2040978240 0.0017424292 -0.1482250239
C -4.6364915608 0.0003447673 -0.0347389870
H -5.0504904959 -0.6053026939 -0.8454849767
H -4.9921517427 1.0316271549 -0.1103740134
H -4.9067878644 -0.4251827739 0.9359267397
C 0.0000071646 0.0001681323 -5.3097343868
C -0.0382404977 1.2029469168 -4.5985133134
C -0.0385570345 1.1625557899 -3.2111999203
N -0.0013417652 0.0007261581 -2.5112854559
C 0.0358408018 -1.1614260354 -3.2106962051
C 0.0368896473 -1.2023540534 -4.5979837748
H 0.0009082371 -0.0000622138 -6.3957464930
H -0.0676636878 2.1597402856 -5.1096015485
H -0.0700531354 2.0789681498 -2.6328673684
H 0.0661554201 -2.0776584109 -2.6320088536
H 0.0662989336 -2.1593784671 -5.1086375919
