51
# extracted from Terachem optimization
Mn 0.0004777087 0.0268432258 -0.0005236438
O 0.0080813275 0.0693090886 2.3483688263
H 0.1253691685 0.8554271109 2.9090162420
H -0.0781918100 -0.6835640617 2.9578881702
O -0.0071224279 0.0797194613 -2.3487211203
H -0.1254815447 0.8667551204 -2.9078741044
H 0.0771015425 -0.6725459760 -2.9592160270
C 0.0000328945 5.1064975884 0.0029557425
C 1.1056071781 4.3953210142 0.4705796865
C 1.0671601744 3.0055525668 0.4464879276
N 0.0000095255 2.3050208708 0.0031131618
C -1.0670558975 3.0056076749 -0.4404465463
C -1.1055492176 4.3953230818 -0.4646002370
H -0.0000789803 6.1916247650 0.0029576411
H 1.9873906196 4.9050501831 0.8442087816
H 1.9146728250 2.4175788290 0.7810277681
H -1.9146007085 2.4178063006 -0.7750910350
H -1.9874044525 4.9049343164 -0.8382429163
C 5.1244578604 -0.0944949427 -0.0161861913
C 4.4072750418 -0.3907485658 1.1437302917
C 3.0183478064 -0.3326694548 1.1056131240
N 2.3237687406 -0.0003116801 -0.0037765657
C 3.0289226865 0.2851383136 -1.1200996580
C 4.4185826356 0.2488423943 -1.1705009834
H 6.2097748476 -0.1300061147 -0.0190102617
H 4.9120922703 -0.6609839729 2.0650231464
H 2.4235635011 -0.5496818156 1.9852275311
H 2.4402120532 0.5418516826 -1.9937261427
H 4.9327091211 0.4878221146 -2.0953308507
C -0.0002814172 -5.0483016565 -0.0020806878
C -1.0479057500 -4.3361575787 0.5835415672
C -1.0121824806 -2.9463864656 0.5558513791
N -0.0001309246 -2.2468545462 -0.0023583467
C 1.0119217767 -2.9465597025 -0.5603228386
C 1.0474994661 -4.3363757376 -0.5877159334
H -0.0004218637 -6.1340542658 -0.0021413734
H -1.8842728706 -4.8443909499 1.0516086593
H -1.8200304775 -2.3612333371 0.9830036716
H 1.8198817701 -2.3615267603 -0.9875330641
H 1.8838578323 -4.8447512485 -1.0557048854
C -5.1243312323 -0.0943455352 0.0156214365
C -4.4073174770 -0.3894287848 -1.1447127121
C -3.0183760774 -0.3313303272 -1.1068006193
N -2.3236047259 -0.0002594360 0.0028399064
C -3.0285702554 0.2838613926 1.1196179643
C -4.4182276474 0.2477129978 1.1701828601
H -6.2096672894 -0.1297613128 0.0186090392
H -4.9122337299 -0.6588226030 -2.0661868478
H -2.4238252535 -0.5472819486 -1.9868788440
H -2.4397395280 0.5393608896 1.9935387621
H -4.9321379712 0.4857729224 2.0953672078
