35
# extracted from Terachem optimization
Mn -0.0699209133 0.0597384540 0.0150065341
O -0.4362979998 2.1977796076 0.0097962933
H 0.2999085146 2.8368466413 0.0725097622
H -1.1624506226 2.6625869770 -0.4478246213
O 1.9911475571 0.4745315062 -0.0463487251
H 2.5156315017 0.8047095720 -0.8023065023
H 2.5967567730 0.4218696320 0.7184844052
O -0.0987426873 -2.1219699457 -0.0251919488
H 0.1391354453 -2.6956001613 -0.7796680593
H -0.5672171082 -2.6948753212 0.6128423826
O -2.2060683884 -0.0613749662 0.0984565508
H -2.7619551029 0.2600179524 0.8353975979
H -2.6946200890 -0.8089734607 -0.2977102657
C 0.3964431533 -0.1028794958 4.7906880205
C -0.3024907979 0.9469667913 4.1858890871
C -0.4160793787 0.9783751015 2.8018574280
N 0.1347558408 0.0103519313 2.0224027030
C 0.8249061312 -1.0096120013 2.6053219929
C 0.9712421341 -1.0907541402 3.9830634695
H 0.4982522405 -0.1483314995 5.8718798647
H -0.7547047999 1.7417118482 4.7715829146
H -0.9271083677 1.7864868310 2.2918071369
H 1.2612182062 -1.7562540440 1.9504998541
H 1.5272835178 -1.9205337332 4.4090766140
C -0.0435878907 -0.0925348472 -4.7917223287
C 0.9783058521 -0.6941340581 -4.0479305398
C 0.9230029796 -0.6450582559 -2.6621835349
N -0.0969787532 -0.0246944457 -2.0077812195
C -1.0960483046 0.5487685984 -2.7268868301
C -1.0966743349 0.5315900532 -4.1162532635
H -0.0193028467 -0.1130759031 -5.8781652881
H 1.8120142164 -1.1955881725 -4.5301893324
H 1.6995158882 -1.1040627015 -2.0577233187
H -1.9049097189 1.0137561889 -2.1758542857
H -1.9139699748 1.0046146340 -4.6528222446
