75
# extracted from Terachem optimization
Mn -0.0038199844 0.0012007070 -0.0019487956
C 0.2399168251 1.9795920568 0.3148605125
N 0.4028995387 3.1140841758 0.5006054852
C 0.6118555427 4.5608549859 0.7347658569
C -0.5254011001 5.0424281318 1.6510944192
H -0.5069120499 4.5316883577 2.6185157297
H -1.5038835354 4.9040602821 1.1816807372
H -0.3872064117 6.1119525630 1.8333514836
C 1.9924662798 4.7112288216 1.4009033047
H 2.0310383264 4.1984534811 2.3663790682
H 2.1685422437 5.7764633258 1.5763414075
H 2.7920451053 4.3385176398 0.7541739997
C 0.5673995644 5.2441717725 -0.6455904646
H -0.4025394610 5.1047241048 -1.1319218865
H 1.3644328991 4.8805365190 -1.3008632685
H 0.7180899773 6.3172537739 -0.4960722736
C 1.9647278425 -0.3343429046 -0.2965825323
N 3.0990134566 -0.4988872635 -0.4813268828
C 4.5467440283 -0.7102547044 -0.7052864386
C 4.8232410608 -0.3893859599 -2.1863427902
H 4.5855371663 0.6517053314 -2.4239847400
H 4.2678752923 -1.0557717651 -2.8530589140
H 5.8904026340 -0.5419517970 -2.3711242673
C 5.2909624612 0.2574379226 0.2343264827
H 5.0498713860 1.3005198050 0.0097709081
H 6.3647864676 0.1176717074 0.0803429621
H 5.0707017082 0.0468645673 1.2849270547
C 4.8498417990 -2.1807866308 -0.3706679236
H 4.2931439785 -2.8628099190 -1.0202305261
H 4.6294477012 -2.4087778392 0.6764008819
H 5.9168928643 -2.3550593767 -0.5355005242
C -0.2443851191 -1.9774848911 -0.3174496372
N -0.4032934044 -3.1129505095 -0.5005640337
C -0.6042465592 -4.5608564130 -0.7299415231
C -0.2850114271 -4.8316518619 -2.2117747848
H 0.7531384957 -4.5840720909 -2.4518226644
H -0.9576493043 -4.2801694926 -2.8753037375
H -0.4293835270 -5.8996076696 -2.3983039592
C 0.3716600364 -5.2986688759 0.2076332559
H 1.4123962003 -5.0500803612 -0.0195354221
H 0.2385433039 -6.3732353113 0.0525387203
H 0.1618515454 -5.0812623050 1.2590360722
C -2.0716645644 -4.8755145664 -0.3909509685
H -2.7594794961 -4.3228626419 -1.0377079234
H -2.2975324338 -4.6579318262 0.6571974996
H -2.2381796171 -5.9436977554 -0.5565841466
C -1.9714331314 0.3400292556 0.2931949462
N -3.1051511048 0.5074970728 0.4785412119
C -4.5529100387 0.7208263363 0.7040817906
C -4.9187394907 2.0728105239 0.0685050221
H -4.7316466297 2.0747784992 -1.0093582335
H -4.3733451413 2.8975597106 0.5367704227
H -5.9875975255 2.2441484061 0.2244595492
C -5.2888543929 -0.4507633708 0.0282799568
H -5.1208168153 -0.4598550223 -1.0526662015
H -6.3611837426 -0.3235985924 0.2024073453
H -4.9891724283 -1.4126873092 0.4544176755
C -4.7701893511 0.7272821824 2.2293774821
H -4.2182195838 1.5402006667 2.7104856520
H -4.4876574064 -0.2279713882 2.6818304041
H -5.8358800785 0.8861935550 2.4177030457
C 1.2926262227 -0.8169471621 2.7246729894
N 0.0124956360 -0.4167887785 2.0526775740
H -0.3626664420 0.4054019539 2.5309067882
H -0.6777499773 -1.1540736368 2.2130197711
H 2.0175243084 -0.0083992668 2.6268460972
H 1.6801248860 -1.7187642723 2.2506147590
H 1.1105772495 -1.0127859413 3.7849682114
C -1.3166629939 0.7811198527 -2.7332349247
N -0.0287523340 0.4109387360 -2.0586291903
H 0.6441573934 1.1641670733 -2.2190627866
H 0.3656624064 -0.4032238562 -2.5348159215
H -1.7253685825 1.6736798021 -2.2597013523
H -2.0231891148 -0.0438416994 -2.6368830367
H -1.1371340962 0.9811066905 -3.7931624865
