57
# extracted from Terachem optimization
Mn 0.0032935444 -0.0136508229 0.0034598079
C 0.0179926992 -0.1497064536 2.4649535836
N 0.0120358766 -0.1780768134 3.6279022179
C 0.0031304116 -0.2093504293 5.0638669760
H 0.5824691552 -1.0707445872 5.4046830099
H -1.0295252948 -0.2940496286 5.4108648863
H 0.4488461543 0.7136524978 5.4427829656
C -0.0102045902 0.2105682853 -2.4447105641
N -0.0248973669 0.3494304077 -3.5995176810
C -0.0455474135 0.5193385692 -5.0258733354
H -0.8264486904 -0.1179118996 -5.4479312111
H 0.9278006925 0.2350199065 -5.4335994373
H -0.2551187750 1.5667582413 -5.2570499065
C 0.0573360593 4.8473999624 0.3272434983
C 0.8817495193 4.0733756075 1.1479771168
C 0.8354526565 2.6898643445 1.0394714216
N 0.0162273594 2.0616515854 0.1604613908
C -0.7854012638 2.8143435935 -0.6330306847
C -0.7902824997 4.2013840892 -0.5760155327
H 0.0753623216 5.9315395558 0.3901413638
H 1.5570884511 4.5310176919 1.8635699920
H 1.4631407520 2.0607738917 1.6584763533
H -1.4327120514 2.2798213881 -1.3171198759
H -1.4502070406 4.7625573656 -1.2294321175
C 4.8703694005 -0.0889952911 -0.0624637937
C 4.1590244416 -0.9065589784 0.8192731584
C 2.7712381248 -0.8574714515 0.8160768674
N 2.0806642628 -0.0379948433 -0.0146126017
C 2.7724142216 0.7555690825 -0.8692028947
C 4.1596240869 0.7544332555 -0.9200978402
H 5.9561376077 -0.1071775406 -0.0799635652
H 4.6690584156 -1.5794750278 1.5002793270
H 2.1876023870 -1.4812978577 1.4824043976
H 2.1907269160 1.4014564484 -1.5147502215
H 4.6687440331 1.4090644652 -1.6196183588
C -0.0369294765 -4.8650425593 -0.3232743498
C -0.7787410024 -4.2150511556 0.6664889401
C -0.7486012257 -2.8285065197 0.7318921547
N -0.0141651216 -2.0828371461 -0.1300011825
C 0.7059916249 -2.7143401607 -1.0894591803
C 0.7140626654 -4.0967775766 -1.2163729584
H -0.0424386636 -5.9484674236 -0.3971552192
H -1.3781233401 -4.7712273996 1.3798943031
H -1.3196781872 -2.2903642036 1.4787664102
H 1.2833843399 -2.0887616997 -1.7588950007
H 1.3037919626 -4.5583888546 -2.0015179358
C -4.8627114610 -0.0830689453 0.0127359428
C -4.1412564891 -0.7478507241 -0.9820632177
C -2.7542120205 -0.6994775470 -0.9561547830
N -2.0739681960 -0.0221549767 0.0014986047
C -2.7745714106 0.6283246148 0.9627629106
C -4.1625435252 0.6154253434 0.9998841678
H -5.9484688027 -0.1110575550 0.0188571559
H -4.6427950812 -1.3024797012 -1.7685752311
H -2.1635893862 -1.2106913969 -1.7065060186
H -2.2010571901 1.1666479396 1.7075372402
H -4.6805358305 1.1485018142 1.7904118860
