75
# extracted from Terachem optimization
Mn -0.0062772468 -0.0048028102 0.0004747434
C 0.3055072724 1.9324725861 0.2909699934
N 0.4512163919 3.0811235645 0.4580262381
C 0.6023117752 4.4509887091 0.6446866487
C -0.3878620261 5.3186162917 0.1630527241
C -0.2271470158 6.6887140718 0.3503420718
C 0.9012022760 7.1823075666 1.0115016898
C 1.8799108660 6.3055131638 1.4882156840
C 1.7399682457 4.9323452343 1.3066229112
H -1.2575817206 4.9189354726 -0.3481138077
H -0.9848727966 7.3720252806 -0.0196021770
H 2.7545446711 6.6915883142 2.0018303613
H 2.4918859140 4.2391979967 1.6695345827
H 1.0182170097 8.2518164035 1.1552627950
C 1.9396466993 -0.2459622513 -0.2969363150
N 3.0848127730 -0.4150824751 -0.4653287174
C 4.4451058154 -0.6306307029 -0.6558517272
C 4.9932164432 -1.8764536492 -0.3204040892
C 6.3573514805 -2.0812601562 -0.5079927748
C 7.1587515641 -1.0595344520 -1.0255976510
C 6.5986634073 0.1772293527 -1.3581928083
C 5.2373532932 0.4029702137 -1.1742158736
H 4.3571351916 -2.6584931218 0.0811054319
H 6.7953595906 -3.0400899111 -0.2497951785
H 7.2232036849 0.9683533089 -1.7605877642
H 4.7881718391 1.3580046235 -1.4266837260
H 8.2213005939 -1.2276759269 -1.1703367784
C -0.3177109178 -1.9402024981 -0.2857701082
N -0.4662118624 -3.0875982388 -0.4603568586
C -0.6229198260 -4.4523887464 -0.6735609854
C -1.8137579814 -5.0763920795 -0.2765506776
C -1.9586939057 -6.4442789846 -0.4902329640
C -0.9308957086 -7.1752447832 -1.0929376181
C 0.2506172333 -6.5401894074 -1.4864874386
C 0.4153655003 -5.1734891534 -1.2795154600
H -2.6022597680 -4.4953056424 0.1906459605
H -2.8748803191 -6.9401151608 -0.1859190637
H 1.0459884341 -7.1104833456 -1.9555359413
H 1.3256127538 -4.6651966503 -1.5801821632
H -1.0512023095 -8.2415053696 -1.2567622584
C -1.9515379412 0.2404574597 0.2950669197
N -3.0943508780 0.4144533052 0.4744869557
C -4.4498565672 0.6326753166 0.6932923247
C -4.8537376336 1.7656114436 1.4131223129
C -6.2134796436 1.9733679419 1.6279401979
C -7.1527764280 1.0661713798 1.1290877350
C -6.7362568207 -0.0588475172 0.4116016762
C -5.3810794019 -0.2859226699 0.1891947072
H -4.1117552119 2.4596798527 1.7941013450
H -6.5403700183 2.8451879126 2.1855145609
H -7.4679344911 -0.7609637612 0.0248337583
H -5.0414776762 -1.1543965999 -0.3658135860
H -8.2111723089 1.2361442101 1.2997927635
C 0.6316655293 -0.8271900003 4.8051103125
C 1.4956421053 0.0146904553 4.1054991828
C 1.2805653176 0.2238760960 2.7484771499
N 0.2669486559 -0.3516956210 2.0659742361
C -0.5639823526 -1.1654996055 2.7529309159
C -0.4179861675 -1.4271109189 4.1101341613
H 0.7727922692 -1.0112093576 5.8656915313
H 2.3283022336 0.5053767332 4.5981451201
H 1.9376316292 0.8693829413 2.1787114286
H -1.3713112277 -1.6151199380 2.1879167963
H -1.1186997976 -2.0898685946 4.6066313592
C -0.6409805913 0.8060586846 -4.8072856134
C 0.3836989556 1.4396230607 -4.1048176720
C 0.5291766796 1.1815921475 -2.7468726818
N -0.2797885296 0.3411284573 -2.0658362623
C -1.2698039068 -0.2662163800 -2.7554434049
C -1.4819439238 -0.0637526458 -4.1139311547
H -0.7804520002 0.9856148103 -5.8688511855
H 1.0655697229 2.1253082720 -4.5964107286
H 1.3168529565 1.6575225954 -2.1756580341
H -1.9081990169 -0.9345900070 -2.1910682186
H -2.2940135592 -0.5819167771 -4.6127368451
