18
# extracted from Terachem optimization
Mn -0.0022687698 0.0016245924 -0.0042999982
C -0.0006725006 2.4746378378 0.1042558301
O -0.0023703671 3.6003756931 0.1415182241
C 2.4799552175 -0.0000814017 0.1127718116
O 3.6059990736 -0.0032657603 0.0889579587
C 0.0014209554 -2.4724472050 0.1026345799
O 0.0040740007 -3.5981927756 0.1402764028
C -2.4817507079 0.0010728928 0.1136628564
O -3.6077176731 0.0033706882 0.0885589516
O -0.0001778602 0.0000729328 2.1859966127
H 0.7728105023 0.0645191523 2.7785039240
H -0.7725183670 -0.0654355227 2.7792271171
C 0.0006012343 0.0009750714 -2.2158504993
N -0.0013671871 0.0004093538 -3.3746716461
C 0.0004732411 -0.0016191087 -4.8085396767
H -0.6115504832 -0.8375207079 -5.1576170387
H 1.0313325365 -0.1137494627 -5.1548213419
H -0.4162738337 0.9452536480 -5.1618821542
