73
# extracted from Terachem optimization
Mn -0.2850130814 0.0586089168 -0.3133155691
C -0.0450195414 2.0089463776 -0.0030824992
N 0.1370175754 3.1497491608 0.1494982836
C 0.2812694540 4.9456861804 1.8199957176
C -0.9561800879 4.9521062235 2.4999878281
C -1.0213162307 5.3493021238 3.8328592791
C 0.1439701336 5.7433258459 4.4967620353
C 1.3777797770 5.7375194390 3.8225911504
C 1.4462093240 5.3328880010 2.4884314837
H -1.8666887186 4.6775908900 1.9717788453
H -1.9762408575 5.3720387696 4.3482266587
H 2.2768126512 6.0631945604 4.3363703242
H 2.3995812764 5.3508062558 1.9670396664
H 0.0974046501 6.0679517310 5.5316403683
C 0.3332929742 4.5735329173 0.3527832170
H 1.2990698170 4.8245220094 -0.0955536721
H -0.4488463228 5.0788920460 -0.2244911950
C 1.6631436534 -0.2826907796 -0.0548201343
N 2.8143118520 -0.4217052562 0.0605076060
C 4.6451924004 -2.0508132871 0.3224494053
C 4.5571505559 -2.7136488874 1.5659329046
C 4.9833046091 -4.0346423225 1.6884920557
C 5.4950744263 -4.7035815898 0.5743694988
C 5.5804114090 -4.0474596088 -0.6670384316
C 5.1520090979 -2.7248699924 -0.7921549291
H 4.1904864389 -2.1813992163 2.4407398905
H 4.9366576863 -4.5332515617 2.6514058510
H 6.0005464723 -4.5638435823 -1.5244866096
H 5.2487950448 -2.2145715528 -1.7470153139
H 5.8441020191 -5.7273939166 0.6668422628
C 4.2493868535 -0.5931929305 0.2151010008
H 4.7123020455 -0.1107853731 -0.6511144917
H 4.5331802205 -0.0263124989 1.1079010167
C -0.5362142000 -1.8983862937 -0.6015817656
N -0.6608673249 -3.0416071371 -0.7896138726
C -2.2393824780 -4.9222461825 -0.6835253118
C -2.6238170842 -5.1536928935 0.6545754485
C -3.8994149727 -5.6298663652 0.9438385354
C -4.8010958394 -5.8736114605 -0.0968493953
C -4.4227120323 -5.6398241461 -1.4309402459
C -3.1465321593 -5.1595880090 -1.7222460871
H -1.9108034178 -4.9944705853 1.4603143384
H -4.1854912218 -5.8304368534 1.9714128058
H -5.1181497126 -5.8541626543 -2.2363843719
H -2.8489569037 -5.0077777375 -2.7566261205
H -5.7921023677 -6.2592448535 0.1219830020
C -0.8278112541 -4.4700423321 -0.9959649894
H -0.5608311344 -4.6681171176 -2.0382105562
H -0.0881570889 -4.9635162112 -0.3571127352
C -2.2203170818 0.4112409082 -0.6049552515
N -3.3626586108 0.5663724005 -0.7753417413
C -5.0438012791 2.0760532623 -1.7391121873
C -4.8778801496 2.1582024018 -3.1371242106
C -5.1775559511 3.3396834917 -3.8078036854
C -5.6410224146 4.4480305622 -3.0893289743
C -5.8041684828 4.3706128799 -1.6956215642
C -5.4998153371 3.1896067702 -1.0218329086
H -4.5501241392 1.2857248579 -3.6978672855
H -5.0736961740 3.3950228788 -4.8867711162
H -6.1881440556 5.2251963937 -1.1473508858
H -5.6534719943 3.1239820812 0.0522963462
H -5.8900808892 5.3670573295 -3.6109706227
C -4.7806261978 0.7672403847 -1.0230061382
H -5.1175968687 -0.0947935486 -1.6075497079
H -5.2761328861 0.7310036808 -0.0484478738
N -0.5134948312 -0.1819973458 1.7660253606
H -1.4983895313 -0.1929107421 2.0379860651
H -0.1094724309 -1.0532256338 2.1134156269
H -0.0790258223 0.5727939747 2.3001907210
N -0.0544005104 0.2878532397 -2.3950864838
H -0.3443624828 1.2109961289 -2.7224336075
H 0.9169728618 0.1719255167 -2.6907241025
H -0.5969968298 -0.3923340701 -2.9306071754
