61
# extracted from Terachem optimization
Mn -0.0012057448 0.0104596701 -0.0030473568
N 0.1844632085 2.0541638399 -0.0883187519
N 2.0421168579 0.1906543966 0.0746322922
C -0.8210629187 2.9423295428 -0.1929711846
H -1.8186911661 2.5192477762 -0.1954944730
C -0.6131170986 4.3140116965 -0.2876993176
H -1.4602839344 4.9866563590 -0.3664397506
C 0.6977589125 4.7900791332 -0.2836557142
H 0.9036202472 5.8529090364 -0.3616638426
C 1.7455444584 3.8791583519 -0.1784343953
H 2.7686322751 4.2354401073 -0.1795668991
C 3.8739427849 1.7449700944 0.1351602319
H 4.2346967430 2.7664158240 0.1220474408
C 4.7813423317 0.6945320273 0.2446076253
H 5.8455854504 0.8967441467 0.3122460299
C 4.2999390999 -0.6142254089 0.2667144101
H 4.9694284653 -1.4634560958 0.3499144279
C 2.9267955536 -0.8174036275 0.1838243194
H 2.4991672776 -1.8129550476 0.1994068953
C 1.4656366415 2.5120584706 -0.0767430558
C 2.5049325456 1.4697740452 0.0471427756
N -0.0892694341 -2.0325005157 0.1800678112
N 0.0878042008 -0.1731925791 2.0399246022
C -0.2036813798 -2.9179566237 -0.8267446660
H -0.2160884703 -2.4919205163 -1.8230390296
C -0.2956959801 -4.2902355251 -0.6214317322
H -0.3828466086 -4.9606872061 -1.4695138876
C -0.2775539562 -4.7697042260 0.6880741746
H -0.3524098050 -5.8331471078 0.8919391675
C -0.1625008813 -3.8614836989 1.7372442450
H -0.1521148472 -4.2206352400 2.7592908175
C 0.1663442017 -1.7311999462 3.8680534973
H 0.1594424446 -2.7535038200 4.2265559766
C 0.2802273241 -0.6823316099 4.7767444141
H 0.3569450207 -0.8865958782 5.8399778316
C 0.2948170549 0.6274693629 4.2979338331
H 0.3808056955 1.4755694015 4.9685044474
C 0.2010083850 0.8333323663 2.9258654467
H 0.2110557855 1.8299011440 2.5003910187
C -0.0650924937 -2.4935701212 1.4599825800
C 0.0665592253 -1.4534020846 2.5004180259
N -2.0447722374 -0.0686614521 -0.1826838728
N -0.1885148659 0.0972953352 -2.0470189134
C -2.9286265627 -0.1792022748 0.8259526500
H -2.5003262237 -0.1962015142 1.8211818037
C -4.3019643008 -0.2616187097 0.6237708230
H -4.9709944187 -0.3459896849 1.4732532664
C -4.7843714373 -0.2373621957 -0.6845495994
H -5.8487829953 -0.3043759652 -0.8860764962
C -3.8778108271 -0.1266191059 -1.7355990574
H -4.2394449498 -0.1118435375 -2.7567109457
C -1.7506655483 0.1881710741 -3.8711003329
H -2.7739260116 0.1885463487 -4.2268732158
C -0.7034507768 0.2945180227 -4.7825623383
H -0.9098760594 0.3731272647 -5.8452400903
C 0.6076661453 0.2988411182 -4.3071828757
H 1.4546570523 0.3784513206 -4.9799410911
C 0.8164264491 0.2029846458 -2.9356812444
H 1.8143590105 0.2054111887 -2.5132556325
C -2.5085614266 -0.0394022528 -1.4614196360
C -1.4699748466 0.0857220046 -2.5042280283
