13
# extracted from Terachem optimization
Mn -0.0000021195 -0.0000032745 -0.0000012235
C -0.0485551030 2.0118302049 0.0482900959
O -0.0742708207 3.1369056183 0.0743775484
C 2.0116982834 -0.0491491643 0.0492545956
O 3.1368325927 -0.0738744092 0.0737801237
C 0.0485683599 -2.0118311429 -0.0483059841
O 0.0742572169 -3.1369028959 -0.0743644878
C -2.0116944772 0.0491466546 -0.0492546129
O -3.1368337480 0.0738794115 -0.0737853363
C 0.0490726843 0.0488957033 2.0117781346
O 0.0737045182 0.0738129151 3.1369069940
C -0.0490682535 -0.0488910202 -2.0117731197
O -0.0737091506 -0.0738185299 -3.1369026845
