61
# extracted from Terachem optimization
Mn -0.1391506895 0.0192790924 -0.0170237091
N -0.0956542787 2.2621801909 0.3919354276
N 2.0058225280 0.7298250089 -0.3488827293
C -1.1927614369 2.9939230295 0.6501235956
H -2.1140588752 2.4328386078 0.7698485365
C -1.1769337768 4.3812450011 0.7580749853
H -2.0912399694 4.9237892533 0.9725546637
C 0.0378612044 5.0391935727 0.5757060665
H 0.0985029500 6.1211559125 0.6402606477
C 1.1799243304 4.2900549192 0.2991488378
H 2.1233868317 4.7965213485 0.1364041432
C 3.5784097172 2.5190519837 -0.0775374562
H 3.7876737255 3.5541100245 0.1634909257
C 4.6326810128 1.6579593449 -0.3761471762
H 5.6535166653 2.0272382912 -0.3782408075
C 4.3568607921 0.3225359991 -0.6630627804
H 5.1458921621 -0.3827874391 -0.9002494907
C 3.0295335915 -0.0940960910 -0.6295247838
H 2.7623769303 -1.1266996649 -0.8294137292
C 1.0900364714 2.8958490330 0.2179447760
C 2.2665925778 2.0323766324 -0.0780466966
N 0.2972980859 -2.2230537080 -0.0267526944
N 0.1719124331 -0.6501646309 2.1556857760
C 0.2414222765 -2.9767180429 -1.1377861725
H 0.0767083926 -2.4368531283 -2.0650824037
C 0.3768679027 -4.3619412454 -1.1273184368
H 0.3282844252 -4.9232290196 -2.0540860201
C 0.5656554215 -4.9935245678 0.1005228410
H 0.6653521622 -6.0728830814 0.1599842935
C 0.6172655901 -4.2214042842 1.2595134443
H 0.7410886468 -4.7057561233 2.2203339891
C 0.9359254204 -2.3860987708 3.6239739981
H 1.2526139728 -3.4106839966 3.7761081112
C 0.9443037045 -1.4963614733 4.6966094292
H 1.2529492609 -1.8330756600 5.6814159657
C 0.5574216729 -0.1746978319 4.4836570047
H 0.5470130436 0.5514147757 5.2892832509
C 0.1872056257 0.2008358640 3.1955198334
H -0.1119208622 1.2206604050 2.9755802552
C 0.4879561535 -2.8312121164 1.1692753105
C 0.5362269833 -1.9396200957 2.3598291033
N -2.4138389682 -0.2644999460 -0.0537984008
N -0.8438008985 0.2497838362 -2.1843430187
C -3.1327749905 -0.6076835343 1.0281589100
H -2.5916393760 -0.6097034028 1.9687466532
C -4.4812628322 -0.9474390194 0.9731052983
H -5.0159737224 -1.2136608877 1.8784082663
C -5.1088506760 -0.9416325298 -0.2711161920
H -6.1562558706 -1.2106407093 -0.3661354928
C -4.3716636627 -0.5900372714 -1.4002585936
H -4.8474017641 -0.5982886163 -2.3732785582
C -2.7030389491 0.4226188037 -3.6886113608
H -3.7694163748 0.3656314545 -3.8698189214
C -1.8486464314 0.7879038434 -4.7272106882
H -2.2498488890 1.0010331479 -5.7131559465
C -0.4808128477 0.8819025940 -4.4783204791
H 0.2205376261 1.1637766378 -5.2561347477
C -0.0289935432 0.6085651900 -3.1907421345
H 1.0244300136 0.6783326614 -2.9401682558
C -3.0223683848 -0.2455895387 -1.2648904838
C -2.1743650494 0.1505950535 -2.4220683725
