15
# extracted from Terachem optimization
Mn -0.0000000847 -0.0000004124 0.0000004517
C 0.0000477575 2.0439315918 0.0000007599
O 0.0000090838 3.1698623378 -0.0000008392
C 1.9757145372 0.0000165716 -0.0000336820
O 3.1049978040 0.0000123455 0.0000109619
C -0.0000475470 -2.0439348939 0.0000004642
O -0.0000090857 -3.1698580081 -0.0000005659
C -1.9756232988 -0.0000185285 0.0000382633
O -3.1050890814 -0.0000114506 -0.0000125344
O 0.0000152520 0.0000004505 2.0106782709
H 0.7847536682 0.0235498324 2.5931600132
H -0.7847530544 -0.0235500626 2.5931411921
O -0.0000160772 0.0000003706 -2.0106785621
H -0.7847552525 0.0234523389 -2.5931611771
H 0.7847553748 -0.0234524906 -2.5931430102
