15
# extracted from Terachem optimization
Mn -0.0000028562 0.0000021809 0.0000345254
C -0.0000030323 2.4532196838 -0.0000804254
O 0.0000012329 3.5790135089 0.0000725512
C 2.4752751119 0.0000020505 0.0000531322
O 3.6009081816 -0.0000015098 -0.0000469772
C 0.0000034013 -2.4532281242 -0.0000813045
O -0.0000019181 -3.5790064780 0.0000728955
C -2.4752669741 -0.0000014809 0.0000499741
O -3.6009138208 0.0000008089 -0.0000451744
O -0.0000004373 -0.0000001109 2.1654267609
H 0.7745560708 0.0333986006 2.7597415622
H -0.7745580968 -0.0333985505 2.7597398178
O 0.0000007958 -0.0000004637 -2.1654313222
H -0.7745527792 0.0334001929 -2.7597534372
H 0.7745551064 -0.0334002884 -2.7597525903
