52
# extracted from Terachem optimization
Mn 0.0003984920 0.0226156125 0.0542347969
C 0.0356603201 0.0122053105 2.3228556805
N 0.0399817937 0.0063449527 3.4835822377
C 0.0427714984 -0.0034391398 4.9163667059
H 0.6833441044 -0.8180063529 5.2629903238
H -0.9795322282 -0.1580115832 5.2703690549
H 0.4231658492 0.9552362258 5.2769930345
O -0.0076801583 2.2879291160 0.0745285299
C 1.0994575550 3.1091492847 0.3205013103
C 0.7219571357 4.4039977804 0.2679246609
C -0.6895488070 4.4267822141 -0.0239493589
C -1.0981822604 3.1442554531 -0.1300747656
H 2.0279325908 2.5893739770 0.4922874836
H 1.3652984827 5.2601118050 0.4174344765
H -2.0397508670 2.6540461606 -0.3183927829
H -1.3113453737 5.3040873063 -0.1389741581
O 2.2977147592 0.0330300122 -0.0900337276
C 3.2281389262 -0.3644307566 0.8788428239
C 4.4662751751 -0.3819904741 0.3403083009
C 4.3375471640 0.0210714968 -1.0378060404
C 3.0287017584 0.2604908784 -1.2648467419
H 2.8261290653 -0.5755821343 1.8565242481
H 5.3805054053 -0.6460938430 0.8545885121
H 2.4497228569 0.5808318536 -2.1148118992
H 5.1357341497 0.1221077057 -1.7603446667
O 0.0324178263 -2.2451190547 0.0633834628
C -1.0154592588 -3.0749331958 0.4780121033
C -0.5920463787 -4.3561637763 0.5123370740
C 0.7906529206 -4.3600260950 0.1053657359
C 1.1360657865 -3.0807283993 -0.1544127120
H -1.9502216003 -2.5737875835 0.6708290145
H -1.1871088287 -5.2147040760 0.7913518752
H 2.0394719692 -2.5826311034 -0.4676599394
H 1.4376793270 -5.2222303649 0.0201373340
O -2.2800952530 0.0038506601 -0.0316222301
C -3.1875195646 0.4396722230 0.9431346204
C -4.4485657790 0.3059879591 0.4800578571
C -4.3592364152 -0.2399721431 -0.8515023453
C -3.0490514425 -0.4076458052 -1.1286537665
H -2.7514476652 0.8007817397 1.8604545439
H -5.3526664028 0.5627958647 1.0148759803
H -2.4900067514 -0.7766754640 -1.9733915865
H -5.1832304521 -0.4744295524 -1.5115775233
O -0.0238819592 0.0235077019 -2.1943578078
C 0.0399532030 -1.0909425518 -3.0446209023
C -0.0887024146 -0.6864315072 -4.3260585691
C -0.2439908377 0.7466068341 -4.3111094631
C -0.2012390570 1.1427019019 -3.0214105192
H 0.1839489332 -2.0372218029 -2.5488499727
H -0.0755329860 -1.3254991970 -5.1981042287
H -0.2722765927 2.0863081577 -2.5049352180
H -0.3733104170 1.3909661800 -5.1698535759
