37
# extracted from Terachem optimization
Mn 0.0001531278 0.0002063140 0.0001195768
C -0.0462858366 2.0039079372 0.0451478246
N -0.0340209085 3.1621821692 0.0324286752
C -0.0108577078 4.5972623427 0.0090102216
H 0.8361368729 4.9190180520 -0.6048442556
H 0.1097141887 4.9651871498 1.0315122433
H -0.9467775064 4.9603287708 -0.4231562169
C 2.0038127375 -0.0453224386 0.0455068905
N 3.1620845473 -0.0328779336 0.0323804208
C 4.5971582158 -0.0110215547 0.0075446171
H 4.9541610366 -0.8401366852 -0.6083534689
H 4.9681684733 -0.1062433640 1.0319343615
H 4.9220226511 0.9433061664 -0.4180455245
C 0.0465168039 -2.0034531357 -0.0456598495
N 0.0330190889 -3.1618002066 -0.0333113415
C 0.0053858815 -4.5967895434 -0.0091020059
H -0.8381983552 -4.9451705655 -0.6101363949
H -0.1040773559 -4.9257540800 1.0282655444
H 0.9468368577 -4.9723167478 -0.4210493645
C -2.0035541352 0.0453930888 -0.0453558255
N -3.1618708133 0.0323320258 -0.0329299907
C -4.5969272301 0.0073075460 -0.0111296249
H -4.9538342706 -0.6085280504 -0.8403220523
H -4.9681381200 1.0316333664 -0.1062047425
H -4.9218049085 -0.4184960331 0.9430971087
C 0.0464106846 0.0463467150 2.0037874692
N 0.0335530744 0.0329143024 3.1621451713
C 0.0091689471 0.0054685827 4.5971248130
H 0.6102283794 -0.8380803344 4.9455632736
H -1.0282220942 -0.1038139203 4.9260941198
H 0.4211584652 0.9469357986 4.9725938523
C -0.0461067076 -0.0455766241 -2.0033504655
N -0.0332274977 -0.0318929071 -3.1617331501
C -0.0074126405 -0.0055756458 -4.5966563215
H -0.6080093133 -0.8396964414 -4.9720433207
H 1.0284058890 -0.1115118316 -4.9304574484
H -0.4247705427 0.9443267191 -4.9404178294
