57
# extracted from Terachem optimization
Mn -0.0071560136 -0.0022605035 0.0031690217
C 0.2685811955 1.8847169253 -0.3331030911
N 0.4341196649 3.0266272704 -0.5430253359
C 0.6255632593 4.3609239405 -0.8007614587
C 0.5092612939 4.8249937780 -2.1334010304
C 0.7028515159 6.1721920544 -2.3850008966
C 1.0086130783 7.0497195883 -1.3266856053
C 1.1222637725 6.5774799964 -0.0047858653
C 0.9328549013 5.2340637876 0.2705322121
H 0.2728528303 4.1298886257 -2.9320152695
H 0.6189423523 6.5522511906 -3.3977754283
H 1.3583662158 7.2670995126 0.7988901695
H 1.0153390029 4.8475040273 1.2807740353
H 1.1586801986 8.1052076898 -1.5331045563
C 1.8824149604 -0.3234541746 -0.2720340178
N 3.0279853109 -0.5158007166 -0.4335906778
C 4.3703628411 -0.7392952688 -0.6118545897
C 5.2320009834 -0.6706070871 0.5095750229
C 6.5841909816 -0.8970577351 0.3201574583
C 7.0767884126 -1.1883144602 -0.9667951770
C 6.2106745439 -1.2541059112 -2.0754398878
C 4.8546022601 -1.0312267822 -1.9098794430
H 4.8289359055 -0.4445715821 1.4910206272
H 7.2651130907 -0.8501386039 1.1635822597
H 6.6066231435 -1.4794717187 -3.0601396264
H 4.1682622932 -1.0765404838 -2.7487609960
H 8.1391437297 -1.3648017297 -1.1060782399
C -0.2834404912 -1.8891541714 0.3396054197
N -0.4494060454 -3.0310178162 0.5494441822
C -0.6421672746 -4.3653675709 0.8058815242
C -0.5271815128 -4.8307491306 2.1381746280
C -0.7223413992 -6.1779978281 2.3883003649
C -1.0283365099 -7.0543288325 1.3290654698
C -1.1406196692 -6.5807101586 0.0075279847
C -0.9496548951 -5.2372437175 -0.2663979331
H -0.2905246490 -4.1366154289 2.9375618343
H -0.6394568909 -6.5590928090 3.4007688975
H -1.3768794083 -7.2693512394 -0.7969402643
H -1.0310434779 -4.8496559216 -1.2763352403
H -1.1796427651 -8.1098464260 1.5344327419
C -1.8968473330 0.3189496752 0.2782029079
N -3.0424233897 0.5113180407 0.4396271695
C -4.3848001386 0.7349174023 0.6178161361
C -4.8694489164 1.0251914087 1.9160661946
C -6.2255324558 1.2481504557 2.0814689887
C -7.0913262971 1.1841161543 0.9724929786
C -6.5983112630 0.8945375810 -0.3146786092
C -5.2461103919 0.6680087870 -0.5039543748
H -4.1833724056 1.0692281011 2.7552326565
H -6.6217267753 1.4722240374 3.0663649657
H -7.2789512593 0.8489651579 -1.1584043650
H -4.8428125025 0.4432106337 -1.4855904175
H -8.1536905083 1.3606590691 1.1116393401
C 0.3098979759 0.2840059910 1.8530566479
O 0.5031026716 0.4582499959 2.9590899414
C -0.3241839114 -0.2882828218 -1.8466785627
O -0.5170144305 -0.4626490303 -2.9527661651
