35
# extracted from Terachem optimization
Mn -0.0577558561 0.0327819926 -0.0000180384
O -0.3973221601 2.1001368535 -0.1419553045
H 0.0624252373 2.6188057492 -0.8247485994
H -1.3433484721 2.3060290859 -0.2447721670
O 1.9908430986 0.2671363379 0.3589713169
H 2.5424566352 0.8826390626 -0.1531612674
H 2.1994512644 0.4225610303 1.2967776167
O 0.1130410556 -2.0636844106 -0.0151715476
H 0.6611946977 -2.5400846704 -0.6614461359
H -0.3869315151 -2.7295767336 0.4863482226
O -2.1564709410 -0.0919279355 -0.2765683507
H -2.6571752302 -0.2998348529 0.5316941805
H -2.4990047122 -0.6801930274 -0.9715579597
C -0.5928464916 0.1019440991 4.8682483589
C -1.1539478702 1.1122937573 4.0874008501
C -1.0120650868 1.0549228631 2.7055250556
N -0.3613365294 0.0518636519 2.0703675692
C 0.1827705308 -0.9226767745 2.8417858827
C 0.0919883237 -0.9326022184 4.2279830865
H -0.6801839127 0.1221897014 5.9500919209
H -1.6880516930 1.9426516116 4.5368345796
H -1.4140233832 1.8447502944 2.0827829442
H 0.7108230658 -1.7097132694 2.3140083288
H 0.5506136899 -1.7383322723 4.7912852867
C 0.8869367055 -0.1599872853 -4.7952294906
C 1.7968815408 -0.6739571778 -3.8699475133
C 1.4989019479 -0.5909758219 -2.5142409800
N 0.3608921480 -0.0298751357 -2.0408608064
C -0.5146508980 0.4604624636 -2.9486911825
C -0.2922285271 0.4159778112 -4.3204602493
H 1.0925300461 -0.2072420371 -5.8600679334
H 2.7293793559 -1.1282141780 -4.1882503244
H 2.1956094422 -0.9662467380 -1.7699783423
H -1.4253791178 0.9019988780 -2.5550248555
H -1.0335325838 0.8264480831 -4.9979531740
