34
# extracted from Terachem optimization
Mn 0.0003686425 -0.0001541072 -0.0346363037
O 0.0022753826 -0.0002275785 2.0482737571
H 0.5523432696 0.5637833477 2.6144596766
H -0.5638236295 -0.5472113793 2.6153545011
C 0.0485708366 1.9933348477 -0.0234596358
N 0.0512066593 3.1566308018 -0.0121105264
C 0.0385056578 4.5871261178 -0.0054327399
H 0.8676533622 4.9586176700 -0.6124633684
H 0.1482340573 4.9409198472 1.0226925903
H -0.9103036609 4.9400070526 -0.4169322224
C 1.9948961160 0.0342995996 -0.0240046916
N 3.1581680594 0.0313505717 -0.0109267040
C 4.5886757598 0.0189587016 -0.0012466406
H 4.9445638190 -0.8147628303 -0.6114455869
H 4.9386783005 -0.1031234267 1.0268679394
H 4.9609137800 0.9623145882 -0.4077780789
C -0.0478817984 -1.9935467060 -0.0240421053
N -0.0505462795 -3.1568137662 -0.0134970593
C -0.0375235255 -4.5872670693 -0.0062369252
H -0.8669206298 -4.9592822726 -0.6126004102
H -0.1466609542 -4.9403575883 1.0221813574
H 0.9111517976 -4.9402049717 -0.4179965118
C -1.9943416244 -0.0348406869 -0.0218802202
N -3.1576313261 -0.0322191390 -0.0090296200
C -4.5881912771 -0.0189503096 -0.0031593027
H -4.9548485227 -0.6266287744 -0.8340106859
H -4.9399014302 1.0097817226 -0.1123205359
H -4.9481110556 -0.4338928750 0.9415988873
C -0.0005929242 -0.0000440574 -2.0122650542
N -0.0007793361 0.0000964692 -3.1742413389
C -0.0002789449 -0.0029798547 -4.6044004878
H -0.6121513727 -0.8337772287 -4.9638839405
H 1.0268455849 -0.1148191341 -4.9605160731
H -0.4125638092 0.9438813858 -4.9622328358
