17
# extracted from Terachem optimization
Mn -0.0000192293 0.0052584675 0.0000230682
C 0.0483686141 0.0035829811 2.4389192782
O 0.0540095611 -0.0003513462 3.5621371179
C -0.0483040725 0.0035925587 -2.4389129847
O -0.0539326059 -0.0003373285 -3.5621508879
O -0.0000087047 1.9175868884 -0.0000000538
H 0.8039058641 2.4922444926 0.0032231240
H -0.8039077201 2.4922665465 -0.0032209390
O 2.0245104726 -0.0036492997 -0.0548849214
H 2.5929943551 0.0030216714 -0.8617882601
H 2.6393515740 -0.0200383758 0.7175053630
O -0.0000093183 -1.9077599962 0.0000065344
H 0.8037006259 -2.4823639191 -0.0090396205
H -0.8037042454 -2.4823853570 0.0090471679
O -2.0245417788 -0.0036505301 0.0548706737
H -2.5930181599 0.0030207609 0.8617782699
H -2.6393952178 -0.0200382175 -0.7175129916
