47
# extracted from Terachem optimization
Mn 0.0000997444 -0.0006340115 -0.0267268369
C 0.1043300195 1.9909745444 -0.0752552432
N 0.1905327838 3.1508200399 -0.1454521730
C 0.3088936442 4.5718655910 -0.2458309370
H 1.0589709453 4.8175724364 -1.0017369225
H 0.6182357910 4.9768817874 0.7208835834
H -0.6562443033 4.9979152197 -0.5312868154
C 1.9909631115 -0.1339175405 0.0454412131
N 3.1508478933 -0.1650683310 0.1518501778
C 4.5712179975 -0.1691430468 0.3145811850
H 5.0027393185 -0.9951051069 -0.2558296367
H 4.8088192077 -0.2937603538 1.3742674211
H 4.9792488857 0.7795336382 -0.0426543853
C -0.1039601853 -1.9920385517 -0.0775803262
N -0.1899349563 -3.1519215621 -0.1471139091
C -0.3088857987 -4.5731443083 -0.2446867897
H -1.0596830369 -4.8202349033 -0.9994423724
H -0.6175899000 -4.9757681618 0.7232647823
H 0.6558202561 -5.0001864444 -0.5301607127
C -1.9912022693 0.1311083831 0.0404408973
N -3.1514889026 0.1611802575 0.1423026676
C -4.5725981457 0.1657375726 0.2984954636
H -5.0228800188 -0.4683469807 -0.4691825388
H -4.9490518613 1.1867564755 0.2007612497
H -4.8233360482 -0.2236987761 1.2886044771
C 0.0035557720 0.0028642730 4.8936956140
C -0.6835129722 0.9842528028 4.1795142600
C -0.6640720703 0.9441363155 2.7903947918
N -0.0017116038 -0.0018564719 2.0894795393
C 0.6621041072 -0.9463327889 2.7911615648
C 0.6867362195 -0.9818310857 4.1802926457
H 0.0064587758 0.0051251201 5.9793047968
H -1.2295151956 1.7727265279 4.6864241197
H -1.1923174338 1.6901648452 2.2091372025
H 1.1879850909 -1.6943849829 2.2103561944
H 1.2340562279 -1.7689916428 4.6878694523
C -0.0020157799 0.0020167805 -4.9399754777
C 0.8696284525 -0.8209317614 -4.2269134321
C 0.8388284742 -0.7920579501 -2.8377989681
N 0.0010796570 0.0019409415 -2.1356121550
C -0.8377270694 0.7963798440 -2.8361327562
C -0.8722559197 0.8249064351 -4.2251138046
H -0.0020627826 0.0028387262 -6.0256558599
H 1.5673204689 -1.4782911043 -4.7346680630
H 1.5041939856 -1.4206266593 -2.2582755999
H -1.4989523168 1.4275790173 -2.2549204594
H -1.5705997040 1.4833830220 -4.7305209677
