59
# extracted from Terachem optimization
Mn 0.0142363174 -0.0010238836 -0.2159485701
O 0.0006486310 0.0072043847 2.0332412569
H 0.7824617041 -0.0359216554 2.6093805411
H -0.7780096950 -0.0168989260 2.6145109556
C -0.1350067112 4.9524358535 -0.1240699264
C -0.5392932962 4.2477230492 -1.2570212622
C -0.4775973744 2.8577687417 -1.2455356933
N -0.0347032357 2.1433424944 -0.1871887813
C 0.3547334428 2.8396940707 0.9050492288
C 0.3177962781 4.2275097322 0.9790778196
H -0.1736270287 6.0370474186 -0.1011004530
H -0.8993798702 4.7602392736 -2.1432077239
H -0.7903427479 2.2854914870 -2.1080644217
H 0.6987390402 2.2470884646 1.7416286516
H 0.6427871022 4.7253529763 1.8867980773
C 4.9150605984 0.2044104740 0.5346761519
C 4.1615596266 -0.8979698674 0.9366406443
C 2.8005061842 -0.9278062671 0.6489775136
N 2.1521401616 0.0737251979 0.0095870316
C 2.8961273557 1.1390522623 -0.3701504921
C 4.2641974619 1.2379309891 -0.1393653440
H 5.9799317888 0.2569936753 0.7401815949
H 4.6158825450 -1.7328634954 1.4602241436
H 2.1967975327 -1.7815346916 0.9304512930
H 2.3641102354 1.9344286195 -0.8769196403
H 4.8024097363 2.1153522446 -0.4822612368
C 0.0313278209 -4.9590797857 -0.1435831432
C -0.4070135798 -4.2247068688 0.9590050228
C -0.3816169509 -2.8362662016 0.8965862631
N 0.0484923135 -2.1481067871 -0.1856527285
C 0.4853996283 -2.8713443279 -1.2402396164
C 0.4898731826 -4.2627569396 -1.2614628010
H 0.0174924335 -6.0446845712 -0.1298446157
H -0.7683710688 -4.7149168918 1.8570548437
H -0.7098018383 -2.2377011110 1.7356373521
H 0.8372618618 -2.3044409935 -2.0914980522
H 0.8492346759 -4.7844020247 -2.1425026018
C -4.8954915791 -0.1855760553 0.4512848494
C -4.2404637479 -1.2173785607 -0.2212842670
C -2.8661155166 -1.1312874128 -0.4152412328
N -2.1181352240 -0.0864844982 0.0088140006
C -2.7682337424 0.9065301695 0.6590005966
C -4.1381823052 0.8949828816 0.9014755149
H -5.9671017486 -0.2235688926 0.6195160006
H -4.7806529418 -2.0811765713 -0.5945242425
H -2.3308783256 -1.9185283576 -0.9302139443
H -2.1602178816 1.7393824334 0.9888141636
H -4.5973016818 1.7262054463 1.4266178104
C 0.0232990942 0.0168158055 -5.2305153038
C 1.2169084834 0.0863452485 -4.5125012965
C 1.1704922608 0.0744139755 -3.1219606227
N 0.0197870773 -0.0093153996 -2.4158602495
C -1.1287239714 -0.0808112782 -3.1269364807
C -1.1722536367 -0.0663978434 -4.5173284925
H 0.0251307904 0.0249804467 -6.3160000489
H 2.1758351367 0.1503666184 -5.0160704278
H 2.0815035703 0.1263395859 -2.5407105078
H -2.0419271721 -0.1409912087 -2.5503535349
H -2.1301476098 -0.1213833440 -5.0241729798
