57
# extracted from Terachem optimization
Mn 0.0398216406 0.0589257492 -0.0533567869
N 0.0933992110 2.2109275084 -0.1234513260
N 2.1166614897 0.3460770265 0.1876980990
C 2.4998625955 1.7195547091 -0.2372476413
C 1.4531379022 2.6866456536 0.2965511982
H 1.6508024770 3.7075480013 -0.0458335926
H 1.4762315263 2.6945714206 1.3906732329
H 2.5187825222 1.7377952340 -1.3320095303
H 3.4983601632 2.0014620848 0.1146705057
H -0.1008182997 2.5840438057 -1.0557527792
H -0.6057123623 2.6664843988 0.4668232945
H 2.3139614432 0.2320940667 1.1842051384
H 2.6986182908 -0.3480330411 -0.2846170784
N 0.2574504738 -1.9819478482 0.1342671266
N -0.1772871369 -0.1338734343 1.9873515432
C 0.5465177126 -2.8738699736 -0.8317396098
H 0.5748533998 -2.4916363655 -1.8462272823
C 0.8052350390 -4.2168459405 -0.5867657057
H 1.0453592883 -4.8728571195 -1.4174323827
C 0.7622168432 -4.6952090890 0.7258993945
C 0.4416716187 -3.7759325140 1.7316038642
H 0.4230878467 -4.1065555794 2.7599045679
C -0.3470735684 -1.7352960243 3.7792486521
H -0.3218353251 -2.7640585897 4.1079262895
C -0.6696624745 -0.7328428340 4.7013412368
C -0.7216483267 0.5803322360 4.2252733334
H -0.9641894266 1.4085722156 4.8834534565
C -0.4687263237 0.8290263080 2.8818730143
H -0.5040306568 1.8441803445 2.5019290666
C 0.2012932348 -2.4375362648 1.4186235448
C -0.1131655545 -1.4187066569 2.4405165433
C -0.9788815384 -1.0687734497 6.1377434188
C 1.0780576760 -6.1310962287 1.0579013105
C 2.2063283945 -6.2550730924 2.1063290399
H 0.1910047473 -6.6241033522 1.4817003614
H 1.3372828841 -6.6845038551 0.1486191555
C -2.1027701477 -2.1217386371 6.2635452668
H -1.2393605656 -0.1615176244 6.6938632991
H -0.0885193391 -1.4903573933 6.6266509047
O -2.4461149948 -2.8291596074 5.3490937098
O -2.6627085374 -2.2372264039 7.4758834152
H -2.2906671107 -1.6133257257 8.1229961978
O 2.5511973343 -5.3401486369 2.8124045809
O 2.7685219779 -7.4665918836 2.2195762303
H 2.3949460779 -8.1142630166 1.5971634211
N -2.0362446149 -0.1826204513 -0.3446873783
N -0.0113984803 0.1368329040 -2.2053265525
C -1.3704033646 -0.2809826259 -2.6849855450
C -2.4182930617 0.2482899969 -1.7166283919
H -3.4164198075 -0.1026582868 -2.0010210763
H -2.4374092679 1.3431205310 -1.7300351235
H -1.3935473109 -1.3750690737 -2.6981076289
H -1.5666311584 0.0662513875 -3.7045160966
H -2.2321399644 -1.1799644516 -0.2357940306
H -2.6199618072 0.2853776893 0.3508759817
H 0.1823705846 1.0714845660 -2.5727098032
H 0.6887954779 -0.4501614287 -2.6634934184
