17
# extracted from Terachem optimization
Mn -0.0001994305 -0.0000984975 -0.0142141593
C -0.0644147546 1.9804489592 -0.0372460813
O -0.0991259218 3.1073708161 -0.0684852597
C 1.9804442703 -0.0645081195 -0.0374155836
O 3.1073693941 -0.0993568924 -0.0682031488
C 0.0642917412 -1.9808451407 -0.0376371061
O 0.0993658197 -3.1077946307 -0.0682516336
C -1.9808909542 0.0642413567 -0.0374344445
O -3.1078157204 0.0992270676 -0.0683843002
C 0.0000519274 -0.0001393239 2.0215587356
O 0.0000891235 0.0002423643 3.1476052246
C -0.0002496398 0.0011833276 -2.0165394636
N -0.0002029746 0.0019934260 -3.1738986395
C 0.0010562109 0.0025746523 -4.6097263847
H -0.6080120733 -0.8396238308 -4.9524132413
H 1.0321130483 -0.1120612847 -4.9555681053
H -0.4238711312 0.9471457493 -4.9593913689
