60
# extracted from Terachem optimization
Mn 0.0167604094 0.0261436002 0.1046264918
C 0.2716641121 -0.0906820890 2.4898675230
N 0.4056698545 -0.1928660441 3.6400410532
C 0.5753401190 -0.3291849540 5.0598568655
H 1.0527055551 -1.2906081403 5.2671558242
H -0.4049234274 -0.2860734918 5.5418335745
H 1.2058501320 0.4868875246 5.4220112059
O -0.1711614085 0.0278665430 -2.5401272919
C 0.8732483231 -0.1535043053 -3.4454012033
C 0.4146634787 -0.0800433441 -4.7188238358
C -0.9955954045 0.1658144914 -4.6397094545
C -1.3092267516 0.2261577667 -3.3224013042
H 1.8535907839 -0.3080908936 -3.0261716170
H 1.0070553155 -0.1858605449 -5.6176509777
H -2.2293320627 0.3804453160 -2.7841581992
H -1.6833564813 0.2779971631 -5.4670546150
C 0.0299678565 4.8971654986 0.1077302533
C 0.7135116368 4.1779592009 1.0924453552
C 0.6911134420 2.7902903631 1.0540907641
N 0.0174759865 2.1054718251 0.0944297531
C -0.6435731397 2.8035203233 -0.8611781214
C -0.6545504690 4.1925502042 -0.8856665500
H 0.0317757997 5.9836866841 0.1137784245
H 1.2616096260 4.6822475109 1.8820574808
H 1.2201150873 2.2053064480 1.7967855847
H -1.1653374489 2.2336428535 -1.6196141315
H -1.1963303718 4.7074908382 -1.6724331019
C 4.8727419615 0.0758619512 -0.3498045390
C 4.2293941673 -0.8862214932 0.4329798594
C 2.8430223486 -0.8819155619 0.5050175829
N 2.0846375836 0.0281462315 -0.1586158155
C 2.7133634527 0.9673648529 -0.9108959826
C 4.0958335540 1.0155798586 -1.0320036459
H 5.9559996212 0.0930728207 -0.4259407008
H 4.7903971532 -1.6359130099 0.9816069423
H 2.3146961291 -1.6175865087 1.0985287229
H 2.0854225254 1.6810882418 -1.4293122647
H 4.5501952586 1.7824642368 -1.6508433458
C -0.1944818707 -4.8530657741 -0.0946037346
C -0.7647574748 -4.1515978135 0.9710713251
C -0.6766459904 -2.7669142796 0.9930659963
N -0.0449757219 -2.0661564505 0.0167010214
C 0.5084369962 -2.7485727373 -1.0153534951
C 0.4503458764 -4.1338667191 -1.1027880612
H -0.2534764141 -5.9365027357 -0.1392020807
H -1.2791284103 -4.6676238530 1.7748165529
H -1.1228502911 -2.1942838195 1.7965804127
H 1.0062366113 -2.1708543252 -1.7835141916
H 0.9080693012 -4.6332353029 -1.9505646288
C -4.8465856672 0.0217049687 0.4766934494
C -4.0656559955 0.8736765084 1.2621756905
C -2.6850721757 0.8548777914 1.1130187553
N -2.0635410996 0.0296643980 0.2334869913
C -2.8230993790 -0.8071072546 -0.5184142786
C -4.2084342478 -0.8313566430 -0.4273653307
H -5.9290765013 0.0213518458 0.5681334762
H -4.5162770285 1.5523909932 1.9790629564
H -2.0527637756 1.5098717240 1.6996835877
H -2.2987706313 -1.4655621564 -1.1999788093
H -4.7726120663 -1.5148311843 -1.0535956394
