21
# extracted from Terachem optimization
Mn -0.0000987694 0.0005238599 -0.0000047416
C -0.0666947437 1.9659841838 0.0000668943
O -0.1068439844 3.0949914373 -0.0004017417
C 1.9654061562 -0.0661795320 0.0000022112
O 3.0943355802 -0.1066022350 -0.0001010267
C 0.0664525723 -1.9652334732 -0.0000607960
O 0.1065201865 -3.0941523339 0.0004018057
C -1.9657001732 0.0669837124 -0.0000077847
O -3.0946144278 0.1067624687 0.0000981953
C 0.0005999562 0.0001930376 2.0141794759
N 0.0008362135 -0.0001677571 3.1719764426
C 0.0005777088 -0.0028435715 4.6071594888
H 0.6101270987 -0.8394286232 4.9579143945
H -1.0311856083 -0.1070330839 4.9539966256
H 0.4190952503 0.9460448841 4.9546581859
C -0.0003675422 0.0011920447 -2.0141518402
N -0.0002623714 0.0014282316 -3.1720078157
C 0.0010599852 0.0020116901 -4.6071576153
H -0.6077535079 -0.8386360619 -4.9523438575
H 1.0311312922 -0.1120232105 -4.9552948705
H -0.4226209059 0.9461842783 -4.9589216349
