33
# extracted from Terachem optimization
Mn -0.0137653815 -0.0085374678 0.0038469873
C 0.1727448016 1.9823464586 -0.2941132262
N 0.2928749343 3.1219685408 -0.4636512158
C 0.4406191686 4.5391727269 -0.6762573013
H 1.4011829439 4.7220218616 -1.1651367292
H 0.4102894701 5.0418852859 0.2945187987
H -0.3814975333 4.8863499910 -1.3076107904
C 1.9375739027 -0.4387930724 0.3124681494
N 3.0592526081 -0.6692999860 0.4873998398
C 4.4545014493 -0.9541974333 0.7059599627
H 4.7812894388 -1.6877029017 -0.0362762259
H 4.5736388759 -1.3603904680 1.7142355117
H 5.0229056380 -0.0266012861 0.6000540328
C -0.2959237318 -1.9933501694 0.2824450934
N -0.4873291600 -3.1265369751 0.4346132526
C -0.7249834429 -4.5321345385 0.6214262016
H -1.3696103636 -4.8870764156 -0.1881054851
H -1.2249926511 -4.6735584809 1.5848436798
H 0.2333043218 -5.0577380655 0.6095822395
C -1.9873315005 0.3267377065 -0.2939261322
N -3.1242173199 0.4856661698 -0.4555250334
C -4.5349627417 0.6793772401 -0.6535895068
H -4.7871235260 1.7150473112 -0.4104575259
H -5.0781446582 -0.0135997498 -0.0050020400
H -4.7682799455 0.4712216520 -1.7028196186
N -0.0312588201 0.4824722577 2.0142086778
H -0.8720347522 1.0078530809 2.2764324349
H -0.0118149530 -0.3588654154 2.6015867320
H 0.7637273200 1.0531508403 2.3192631546
N 0.4739001003 -0.1606946139 -2.0060195048
H -0.3140126308 0.1134328206 -2.6029233560
H 1.2655868572 0.4202134568 -2.2993284075
H 0.7181631711 -1.1232336188 -2.2617444607
