151
# extracted from Terachem optimization
Mn -0.0048504691 -0.0547600167 0.0121699254
C 0.3029472121 1.8551261171 -0.3075134672
N 0.4673658181 2.9990780687 -0.4863416539
C 0.6359473312 4.3616086618 -0.6810820814
C -0.3353476155 5.2532215734 -0.2030938555
C -0.1569821063 6.6145146701 -0.4019107239
C 0.9713685179 7.1313971473 -1.0698299367
C 1.1154650542 8.6492628878 -1.2628718951
C -0.0844840268 9.1672856995 -2.0936705425
C 1.1190178214 9.3379818191 0.1238429780
C 2.4147851932 9.0250954125 -1.9997620225
C 1.9232127951 6.2089265206 -1.5352345989
C 1.7684961605 4.8375627403 -1.3492553213
H -1.2097940444 4.8745578862 0.3163573346
H -0.9169921286 7.2923950501 -0.0281484097
H -0.1141898538 8.6964466207 -3.0825378437
H 0.0017931580 10.2498460113 -2.2369412017
H -1.0420596697 8.9758245842 -1.5982178495
H 1.9612387720 8.9946177009 0.7348037665
H 0.1957763298 9.1448007369 0.6794685255
H 1.2103263054 10.4225216085 0.0008863694
H 3.3077968924 8.7168733258 -1.4439713610
H 2.4643822984 10.1118369998 -2.1189363659
H 2.4593172795 8.5856361316 -3.0026912529
H 2.8072117497 6.5570780982 -2.0552552675
H 2.5140314271 4.1400635160 -1.7177299640
C 1.9129742003 -0.3254212077 -0.2729391658
N 3.0587688281 -0.4864430441 -0.4439007793
C 4.4181287262 -0.6684030683 -0.6510542000
C 4.9198934346 -1.9556471178 -0.8896267584
C 6.2816923486 -2.1204565401 -1.0992407596
C 7.1787779277 -1.0337327154 -1.0811421815
C 8.6775666364 -1.2746182928 -1.3213578823
C 9.2190250223 -2.2218610746 -0.2225198562
C 8.8697606451 -1.9316423325 -2.7101541834
C 9.4932689164 0.0320369456 -1.2822920254
C 6.6407998621 0.2406011551 -0.8362716615
C 5.2786519922 0.4336365601 -0.6221240666
H 4.2455334554 -2.8057632006 -0.9103542872
H 6.6545229813 -3.1227765349 -1.2820544158
H 9.0993577086 -1.7820043422 0.7737829193
H 10.2863010903 -2.4078386705 -0.3844098101
H 8.7110102352 -3.1919834527 -0.2270670924
H 8.4995960247 -1.2815479361 -3.5107317736
H 8.3500705023 -2.8922615043 -2.7859220956
H 9.9343011677 -2.1160450019 -2.8903113670
H 9.1730015865 0.7390865344 -2.0559125744
H 10.5492098138 -0.1923227367 -1.4618709537
H 9.4272776510 0.5277080957 -0.3071222155
H 7.2891826194 1.1077805047 -0.8100555884
H 4.8820420772 1.4261927021 -0.4331885210
C -0.3155140586 -1.9641102681 0.3329171936
N -0.4822135192 -3.1055100236 0.5250135250
C -0.6624407395 -4.4611646533 0.7544626988
C -1.9531952367 -4.9683034819 0.9610859533
C -2.1150027370 -6.3268049493 1.1925620774
C -1.0213554563 -7.2151373961 1.2284625589
C -1.2584599586 -8.7100509827 1.4937458792
C -1.9307835272 -8.8769094944 2.8785419780
C -2.1895354075 -9.2785266134 0.3948906652
C 0.0523285859 -9.5200867375 1.4873248854
C 0.2565660252 -6.6718413958 1.0159229270
C 0.4465001591 -5.3130896842 0.7800272229
H -2.8087458882 -4.3009024778 0.9369937739
H -3.1197579014 -6.7046173855 1.3499121442
H -1.2904896687 -8.4891286319 3.6786454482
H -2.1138906922 -9.9383454805 3.0776744225
H -2.8937667266 -8.3585761764 2.9339980686
H -1.7406526941 -9.1717150764 -0.5988267847
H -3.1644821962 -8.7801767773 0.3812236301
H -2.3672259806 -10.3445474762 0.5732092712
H 0.5633201817 -9.4661528843 0.5193146041
H -0.1703931010 -10.5742614026 1.6789681851
H 0.7454444615 -9.1859341078 2.2675766105
H 1.1291193611 -7.3132195163 1.0337441173
H 1.4419612606 -4.9115541575 0.6198405652
C -1.9230106579 0.2246822172 0.2943874394
N -3.0687684857 0.4028505704 0.4469696101
C -4.4278757324 0.6245115813 0.6139376511
C -4.9719528746 1.8748217988 0.2874727789
C -6.3345580693 2.0809416333 0.4499182745
C -7.1910312461 1.0723642863 0.9348241239
C -8.6933380674 1.3557497355 1.0933050537
C -8.8845184576 2.5235362940 2.0923746647
C -9.2819179150 1.7537620457 -0.2825443324
C -9.4671883798 0.1328453151 1.6207219816
C -6.6105759680 -0.1657893586 1.2554054936
C -5.2466302194 -0.3994642376 1.1001876021
H -4.3295360505 2.6638081979 -0.0902472282
H -6.7414125185 3.0526271606 0.1908123327
H -8.4817700578 2.2707414314 3.0794653945
H -9.9513977448 2.7428266463 2.2083057078
H -8.3944670820 3.4416810203 1.7516027843
H -9.1708488174 0.9432814965 -1.0115412491
H -8.7993891007 2.6470948729 -0.6920550584
H -10.3504423408 1.9723734803 -0.1814485766
H -9.3922063972 -0.7248219175 0.9424472124
H -10.5283386856 0.3847995039 1.7111249067
H -9.1201409518 -0.1759343686 2.6133029815
H -7.2265442617 -0.9729481422 1.6326962468
H -4.8171056506 -1.3636259640 1.3530489660
C 0.3025487327 0.2394091960 1.9406794140
N 0.4789841241 0.4131436207 3.0828341739
C 0.6809396367 0.6207697930 4.4366643730
C 1.7905670816 1.3627104382 4.8686563924
C 1.9755302604 1.5661868259 6.2280485089
C 1.0823953465 1.0505922263 7.1896633075
C 1.3330860198 1.3121981997 8.6823574178
C 2.7103693294 0.7236953941 9.0768342390
C 1.3335638088 2.8404620178 8.9332857811
C 0.2568098747 0.6722005711 9.5793345090
C -0.0159383553 0.3103049600 6.7200332084
C -0.2255903748 0.0908964473 5.3620819637
H 2.4881773360 1.7679368527 4.1427603629
H 2.8363365091 2.1428794587 6.5489760649
H 2.7403433324 -0.3590789597 8.9122243625
H 2.9013232112 0.9096351093 10.1391775520
H 3.5310706395 1.1756971599 8.5100722299
H 0.3672974531 3.2859417756 8.6713287673
H 2.1107367665 3.3533394791 8.3570208236
H 1.5217668185 3.0426428915 9.9932308138
H -0.7440291986 1.0650879643 9.3666367868
H 0.4773127722 0.8964412156 10.6274849145
H 0.2319138294 -0.4188561694 9.4783054595
H -0.7287555269 -0.1062538921 7.4210079689
H -1.0798317205 -0.4826072120 5.0168707240
C -0.3091156720 -0.3450811918 -1.9174339782
N -0.4782073603 -0.5102517970 -3.0619627255
C -0.6561675260 -0.6945748685 -4.4225565164
C 0.3120890795 -0.2140555138 -5.3173578413
C 0.1244843058 -0.4055438142 -6.6777745460
C -1.0110921711 -1.0657411712 -7.1904957099
C -1.1653095533 -1.2504517877 -8.7078794462
C -1.1655779124 0.1398490999 -9.3896709258
C 0.0278920064 -2.0846449653 -9.2365316429
C -2.4704596511 -1.9790180170 -9.0799205478
C -1.9601095635 -1.5322272422 -6.2647434841
C -1.7955354621 -1.3562558854 -4.8939243596
H 1.1920666460 0.2974101067 -4.9407649939
H 0.8819222539 -0.0327241175 -7.3589082449
H -2.0026320044 0.7535052604 -9.0387005535
H -1.2639874729 0.0219566794 -10.4741294474
H -0.2382416232 0.6897283046 -9.1997283552
H 0.0558757682 -3.0757021563 -8.7702620198
H 0.9889285599 -1.5944390986 -9.0491011210
H -0.0662901233 -2.2226385637 -10.3190848772
H -2.5171989844 -2.9841648471 -8.6458489868
H -2.5268676793 -2.0918617961 -10.1669839510
H -3.3589417042 -1.4207002652 -8.7634471619
H -2.8491901543 -2.0449051754 -6.6105847848
H -2.5385462002 -1.7235163604 -4.1932708197
