151
# extracted from Terachem optimization
Mn 0.0030945116 -0.0021957780 -0.0318530299
C -0.3322752071 1.8901711891 0.2319087630
N -0.5189546463 3.0338387818 0.4070038454
C -0.7316715559 4.3785147202 0.6173175420
C -1.8445402177 4.8018380988 1.3690846606
C -2.0386897415 6.1555905202 1.5773678171
C -1.1527928518 7.1301635660 1.0573375200
C -1.4105696721 8.6140251381 1.3250448652
C -2.8000904542 8.9967683466 0.7488552987
C -1.4075036568 8.8536495306 2.8585649690
C -0.3467897324 9.5246150989 0.6841739163
C -0.0518049502 6.6693403012 0.3049361417
C 0.1668370564 5.3175324748 0.0818934644
H -2.5332383691 4.0690834904 1.7770059145
H -2.8969071490 6.4707998161 2.1602264461
H -2.8373290693 8.8410077067 -0.3346925368
H -2.9929874187 10.0563731410 0.9451191842
H -3.6132565415 8.4235991756 1.2058800938
H -0.4370797186 8.5999477005 3.2988677728
H -2.1797641351 8.2720980721 3.3724163701
H -1.6034485568 9.9116983851 3.0605827525
H 0.6583376910 9.3211433470 1.0707210292
H -0.5766823060 10.5682523581 0.9172444814
H -0.3285050300 9.4335963031 -0.4078470786
H 0.6497047732 7.3803125387 -0.1134248204
H 1.0193340891 4.9803911497 -0.4988107073
C 1.9009743432 0.2663173471 0.2699909287
N 3.0425526073 0.4478132140 0.4626388745
C 4.3825220397 0.6757818527 0.6877871344
C 5.1729326250 -0.3227293151 1.2882998365
C 6.5167474976 -0.0751719701 1.5065176269
C 7.1213357856 1.1551147720 1.1519108994
C 8.6117856730 1.3801019984 1.4175776607
C 8.8992414471 1.1615751713 2.9265400345
C 9.4237413354 0.3489456122 0.5881653904
C 9.0713643558 2.7970972146 1.0284029731
C 6.2984305070 2.1310350455 0.5509479616
C 4.9498931384 1.9064534223 0.3152329095
H 4.7265294011 -1.2704105542 1.5716485387
H 7.1162468128 -0.8527137517 1.9669385141
H 8.3341030495 1.8659574308 3.5463345472
H 9.9649829854 1.3219959151 3.1183014031
H 8.6557091434 0.1455697454 3.2522166133
H 9.2513560518 0.4785843712 -0.4857165398
H 9.1746469365 -0.6838184768 0.8529565287
H 10.4923700585 0.4912892119 0.7792751789
H 8.9405809815 2.9944568179 -0.0416208987
H 10.1376112169 2.9067677413 1.2470672266
H 8.5421587531 3.5712935607 1.5955477856
H 6.7183330247 3.0861349212 0.2615289490
H 4.3318252346 2.6689892816 -0.1474657675
C 0.3342831873 -1.8962995770 -0.2863668801
N 0.5109428276 -3.0435441870 -0.4480787570
C 0.6941205332 -4.3967688795 -0.6292492623
C -0.2682039510 -5.3001034215 -0.1379018967
C -0.0755683436 -6.6562816405 -0.3282698695
C 1.0618911093 -7.1663632741 -0.9998994918
C 1.2221207983 -8.6766054283 -1.1851035927
C 1.2221451749 -9.3581182019 0.2089015060
C 0.0216327299 -9.2061005777 -2.0149566453
C 2.5255151958 -9.0473835570 -1.9167508257
C 2.0057544379 -6.2320915264 -1.4769371343
C 1.8353726858 -4.8659363819 -1.3019421478
H -1.1454437468 -4.9272769321 0.3806264559
H -0.8244404768 -7.3428797333 0.0505209861
H 2.0598118139 -9.0088844999 0.8221525914
H 1.3228605718 -10.4410174386 0.0836934481
H 0.2937858534 -9.1745506682 0.7587191758
H -0.0095406172 -8.7440526007 -3.0074859941
H -0.9379070249 -9.0225631639 -1.5208899345
H 0.1222476002 -10.2881836279 -2.1480407142
H 2.5688135393 -8.6176237978 -2.9238253287
H 2.5818585617 -10.1341344201 -2.0273336247
H 3.4157497650 -8.7313400738 -1.3610603309
H 2.8909498881 -6.5777807595 -1.9960084651
H 2.5708677106 -4.1614238064 -1.6767518902
C -1.8955698000 -0.2593612090 -0.3344367048
N -3.0406815059 -0.4196858578 -0.5252253141
C -4.3874954520 -0.6031874061 -0.7493451182
C -5.1109586920 0.3558317786 -1.4840924341
C -6.4638728921 0.1593361086 -1.6960918363
C -7.1450807703 -0.9770147894 -1.1968368663
C -8.6435166886 -1.1427309266 -1.4563977105
C -9.3962401893 0.0650757542 -0.8367563308
C -8.8904148597 -1.1701760024 -2.9884287393
C -9.2090142618 -2.4384066836 -0.8455768344
C -6.3876057708 -1.9175379284 -0.4674192362
C -5.0297694332 -1.7449840339 -0.2402674784
H -4.6066221661 1.2339067833 -1.8744303099
H -7.0114530029 0.9042243595 -2.2629234665
H -9.2549519993 0.1057300565 0.2486849447
H -10.4682839653 -0.0356759334 -1.0347614920
H -9.0711309868 1.0207740667 -1.2606310436
H -8.3703143717 -2.0109511049 -3.4599260212
H -8.5664676274 -0.2475007440 -3.4807725423
H -9.9622283179 -1.2856179270 -3.1790624885
H -8.7417814760 -3.3336458089 -1.2712994760
H -10.2803472142 -2.5010204707 -1.0574103653
H -9.0931152546 -2.4657096226 0.2438702805
H -6.8669585967 -2.8024308854 -0.0675545156
H -4.4635480599 -2.4783431941 0.3248194097
C -0.2828491991 -0.3380960176 1.8561538627
N -0.4412609607 -0.5231289448 3.0029065334
C -0.6180533241 -0.7360530887 4.3506764728
C 0.3193477839 -1.5078546332 5.0653607069
C 0.1314603121 -1.7065433137 6.4208881316
C -0.9763981129 -1.1597204556 7.1137238351
C -1.1315714912 -1.4048383849 8.6149637919
C -1.1939235498 -2.9338524437 8.8748164481
C 0.1020840226 -0.8101840344 9.3469196929
C -2.4043079785 -0.7575763013 9.1915957339
C -1.8969797480 -0.3955478703 6.3648306211
C -1.7312199238 -0.1786677496 5.0050056229
H 1.1749156435 -1.9340470275 4.5516053912
H 0.8603480886 -2.2986492296 6.9630112102
H -2.0517981377 -3.3885997073 8.3678712106
H -1.3025538983 -3.1124783545 9.9494046468
H -0.2872933021 -3.4523253564 8.5464301656
H 0.1673905424 0.2729369541 9.1980310460
H 1.0420804238 -1.2593721727 9.0103642446
H 0.0113175604 -0.9995343103 10.4214317066
H -2.4044996740 0.3316596333 9.0711201740
H -2.4603504485 -0.9628738626 10.2645320928
H -3.3151969303 -1.1620681686 8.7358890905
H -2.7597457214 0.0395387911 6.8537946352
H -2.4480022578 0.4133739678 4.4450842588
C 0.2947063074 0.3271449673 -1.9194185332
N 0.4651644664 0.5028982868 -3.0660009054
C 0.6726583926 0.6946436219 -4.4123628731
C 1.7690249154 0.0744241936 -5.0442483919
C 1.9621167512 0.2710438733 -6.3990193062
C 1.0906309897 1.0762488125 -7.1730161048
C 1.3483200830 1.2536777277 -8.6697372933
C 2.7446556411 1.9044008368 -8.8634102173
C 1.3316924753 -0.1414923966 -9.3500267822
C 0.2927862230 2.1440134384 -9.3510398124
C 0.0055102874 1.6849058549 -6.5059868927
C -0.2109513835 1.5048011201 -5.1478681843
H 2.4457945128 -0.5475168224 -4.4674106273
H 2.8086103620 -0.2097265366 -6.8764091801
H 2.7887871481 2.8941542548 -8.3966317871
H 2.9423352501 2.0253179098 -9.9334614734
H 3.5505738240 1.2919211161 -8.4465694379
H 0.3604962459 -0.6316988510 -9.2242916383
H 2.1064572350 -0.8072146815 -8.9562334660
H 1.5147231381 -0.0232802398 -10.4229913550
H -0.7152007601 1.7207071921 -9.2752250769
H 0.5272028476 2.2311755876 -10.4158795631
H 0.2795068563 3.1593939075 -8.9389015862
H -0.6841106568 2.3100990097 -7.0593373249
H -1.0515647319 1.9785461886 -4.6512249640
