50
# extracted from Terachem optimization
Mn 0.0251731849 -0.0204690066 -0.1282483380
C 0.2115181104 -0.0304844074 -1.9369681281
O 0.3264476084 -0.0301500009 -3.0787134625
O -0.1995073423 -0.0291636558 2.0375154549
H 0.5822277377 0.0002829436 2.6119626120
H -0.9421286530 0.3452230176 2.5370743082
C -0.0661152302 4.8883076288 -0.0515947873
C 0.5574100249 4.1652300375 0.9662331317
C 0.5488500769 2.7769152620 0.9080836044
N -0.0375369335 2.0849808097 -0.0944952565
C -0.6448668512 2.7948357731 -1.0736968078
C -0.6807614655 4.1843188087 -1.0876941819
H -0.0709525306 5.9739652934 -0.0383817138
H 1.0489048171 4.6637617540 1.7946201476
H 1.0325982569 2.1901223744 1.6787908703
H -1.1187060083 2.2249898045 -1.8643597361
H -1.1797860831 4.6975057268 -1.9030128083
C 4.8769847004 0.0739845904 0.5411614510
C 4.0798723878 -0.8458971765 1.2236869110
C 2.7067902758 -0.8404583512 1.0058376054
N 2.0992134173 0.0253976118 0.1611681896
C 2.8820182592 0.9091411555 -0.5002434069
C 4.2612719255 0.9652265820 -0.3376862759
H 5.9522973285 0.0914157461 0.6881855621
H 4.5106554762 -1.5660514828 1.9115184212
H 2.0662661487 -1.5625292337 1.5005220796
H 2.3770251842 1.5885593541 -1.1760698198
H 4.8370939580 1.6932529712 -0.8992072034
C 0.0129097670 -4.9149073409 0.0315896211
C -0.7117966961 -4.1619028316 0.9555069428
C -0.6655779972 -2.7744493119 0.8816544127
N 0.0517447696 -2.1131599051 -0.0554191842
C 0.7563387217 -2.8529330070 -0.9445792407
C 0.7637822816 -4.2419238056 -0.9328221801
H -0.0068087449 -5.9997927168 0.0626332202
H -1.3050207587 -4.6374009000 1.7292361196
H -1.2049923165 -2.1615017366 1.5908802304
H 1.3343865529 -2.3102211483 -1.6832864888
H 1.3464445133 -4.7791124918 -1.6732099032
C -4.8674581970 -0.0559231234 -0.3011229172
C -4.1253912810 -0.9132020709 -1.1133812416
C -2.7367639328 -0.8756035130 -1.0475451959
N -2.0647967571 -0.0374569078 -0.2266990834
C -2.7940177826 0.7939780907 0.5522402474
C -4.1828261851 0.8142101643 0.5483777445
H -5.9525598680 -0.0584920385 -0.3340497043
H -4.6097113903 -1.6013697333 -1.7975704720
H -2.1356660212 -1.5326798703 -1.6648491790
H -2.2362367275 1.4878833043 1.1718705064
H -4.7117293605 1.5072886162 1.1939237259
