13
# extracted from Terachem optimization
Mn 0.0000006228 -0.0000015666 0.0000005239
C 0.0000042934 2.4286798386 0.0000076416
O -0.0000028909 3.5533931945 -0.0000064835
C 2.4286811886 -0.0000338497 0.0000150806
O 3.5533911879 0.0000274472 -0.0000119138
C -0.0000044455 -2.4286815912 -0.0000073878
O 0.0000026064 -3.5533892176 0.0000061219
C -2.4286822535 0.0000334129 -0.0000152758
O -3.5533899648 -0.0000273464 0.0000119023
C -0.0000113050 -0.0000003155 2.4286821760
O 0.0000092026 -0.0000000801 3.5533908269
C 0.0000109959 0.0000000929 -2.4286821865
O -0.0000092451 -0.0000000198 -3.5533910180
