57
# extracted from Terachem optimization
Mn 0.0669041715 0.2059475778 0.0173152952
N 0.1460123891 2.3042809003 0.3385856149
N 2.1529131876 0.4049836826 0.2028384221
C 2.5459265280 1.8551623740 0.1446337630
C 1.5030528683 2.6519248303 0.9065974191
H 1.6869201267 3.7281622537 0.8305318486
H 1.4969181095 2.3817071648 1.9661029106
H 2.5846676220 2.1500672666 -0.9084276692
H 3.5447378725 2.0025638869 0.5680200745
H 0.0267012876 2.7986394523 -0.5502917641
H -0.5926223377 2.6754514682 0.9431697466
H 2.3918233176 0.0155611908 1.1211918036
H 2.6882161036 -0.1460231740 -0.4742258266
N 0.3123883007 -1.7864320390 0.1079745852
N -0.2870803116 -0.1589233424 2.2005233861
C 0.6308125969 -2.5550417090 -0.9628129489
H 0.6676805426 -2.0603698388 -1.9255831635
C 0.9127665135 -3.9060077712 -0.8538153872
H 1.1757467088 -4.4646512303 -1.7466488064
C 0.8780194939 -4.5174528176 0.4080850326
C 0.5153719739 -3.7170246161 1.5035722434
H 0.4788826388 -4.1636225780 2.4863039228
C -0.3669921704 -1.9847652209 3.7665736444
H -0.2545259204 -3.0377007793 3.9759968015
C -0.8102862780 -1.1352879992 4.7964078129
C -0.9539833294 0.2209736033 4.4863320004
H -1.2906199524 0.9359107105 5.2306640806
C -0.6771686870 0.6608475174 3.1953607726
H -0.7900169420 1.7155060744 2.9583990692
C 0.2390043883 -2.3598366821 1.3533334100
C -0.1382503565 -1.4846623450 2.4875566683
C -1.1597095243 -1.6947859677 6.1483810856
C 1.2682228512 -5.9530592018 0.6158625812
C 2.3985649493 -6.0620442575 1.6780520882
H 0.4088612276 -6.5265791979 0.9941291734
H 1.5700633294 -6.4184561337 -0.3279899332
C -2.1408566007 -2.8902113613 6.0237681669
H -1.5739361233 -0.9150791741 6.7960299058
H -0.2527486951 -2.0695288353 6.6459379104
O -2.3398646389 -3.4501215412 4.9706986163
O -2.7273335933 -3.2946547299 7.1465974625
H -2.4847144694 -2.7708944921 7.9310092545
O 2.6798067123 -5.1363125404 2.4023063501
O 3.0185781139 -7.2331027698 1.7677905496
H 2.6967803046 -7.9041565189 1.1392201193
N -2.0020648607 0.0042619535 -0.3632038633
N -0.0847011959 0.4920519150 -2.3651288603
C -1.4867140143 0.1372540761 -2.7629308422
C -2.4415192387 0.5970978201 -1.6704883280
H -3.4693173502 0.2949380275 -1.8969836561
H -2.4323610551 1.6863105114 -1.5621675932
H -1.5424034430 -0.9496067118 -2.8834675404
H -1.7644059343 0.5853672069 -3.7221304050
H -2.1948317069 -1.0026033883 -0.3653722090
H -2.5582969511 0.3776991937 0.4114438212
H 0.0854816943 1.4631119241 -2.6422458706
H 0.5700602105 -0.0349924355 -2.9481219373
