25
# extracted from Terachem optimization
Mn -0.0006777117 0.0095361077 -0.0000819853
O 0.4072065658 2.0262217019 -0.0510830270
H 0.2186148898 2.5514044643 -0.8480837824
H 0.1237171554 2.5712967281 0.7039286768
O 2.0081852409 -0.3838662732 0.1020982008
H 2.5929469088 0.0264282643 -0.5595941335
H 2.4877387898 -0.3479261426 0.9479619772
O -0.4093081345 -2.0086493966 0.0573832366
H -0.1204916511 -2.5551883013 -0.6944528772
H -0.2176819511 -2.5297112837 0.8563064600
O -2.0102989260 0.4024575938 -0.1129328126
H -2.5937338125 0.0098523177 0.5603429300
H -2.4833231446 0.3217315052 -0.9595947921
C -0.0789947037 0.0306876495 2.0218422018
N -0.0753642073 0.0135776733 3.1859885939
C -0.0588229025 -0.0010702952 4.6208129300
H 0.5563655859 -0.8379767422 4.9617046367
H -1.0810430605 -0.1173673483 4.9884942283
H 0.3612820024 0.9415702566 4.9806071953
C 0.0771428912 -0.0164027166 -2.0223600052
N 0.0731160648 -0.0155119056 -3.1865619831
C 0.0593301728 -0.0212269618 -4.6211345272
H -0.5626700637 -0.8511825732 -4.9649523212
H 1.0811962718 -0.1437971605 -4.9880378391
H -0.3544322764 0.9251128564 -4.9786009932
