38
# extracted from Terachem optimization
Mn -0.0004814144 0.0016208479 0.4201531565
C -0.0000407796 0.0019286426 -2.3358978453
O -0.0016399311 0.0014676806 -3.4671962656
C 0.0190201786 2.3182972478 0.0646290693
N 0.0244522579 3.4599357159 -0.1552617705
C 0.0320764132 4.8640676051 -0.4326871027
H 0.8571161636 5.0878563345 -1.1131843396
H 0.1643477031 5.4125850957 0.5030016959
H -0.9182451109 5.1417625864 -0.8951974089
C 2.3063023423 -0.0196887359 0.1242228071
N 3.4623645734 -0.0155175857 0.0049991162
C 4.8849644356 -0.0067553004 -0.1459140260
H 5.1798160706 -0.8308271497 -0.8000033920
H 5.3491116601 -0.1264245030 0.8359817773
H 5.1907446886 0.9444219203 -0.5882668777
C -0.0202636555 -2.3155251469 0.0645821294
N -0.0253684603 -3.4571667970 -0.1551806648
C -0.0323795330 -4.8613173228 -0.4320581496
H -0.8572137474 -5.0857764589 -1.1124853821
H -0.1644739432 -5.4094520106 0.5038032184
H 0.9180661225 -5.1388144959 -0.8942971318
C -2.3071315893 0.0200791789 0.1215711055
N -3.4629090846 0.0133402079 -0.0003570665
C -4.8852565070 0.0017153155 -0.1543261201
H -5.1458131921 -0.6239059507 -1.0114902240
H -5.2349410407 1.0232615289 -0.3218942949
H -5.3394279672 -0.4030875133 0.7533090490
C 0.0004619425 -0.0000247897 5.4295268971
C -0.1655098911 1.1896374815 4.7191450538
C -0.1609973014 1.1459570207 3.3303510687
N 0.0008269428 0.0011520652 2.6307753497
C 0.1626444962 -1.1442156465 3.3294504441
C 0.1664818242 -1.1891127511 4.7181918293
H 0.0004246570 -0.0004315611 6.5151161703
H -0.2963816129 2.1382178501 5.2290450006
H -0.2901730437 2.0500983047 2.7448867384
H 0.2920513740 -2.0478851222 2.7433368488
H 0.2967731484 -2.1381610846 5.2273580475
