37
# extracted from Terachem optimization
Mn -0.0056283390 -0.0325412360 -0.0342139422
N 0.3120616945 2.2772187172 0.3283986928
N 2.3162645156 0.2113824760 -0.0772839391
C 2.6367760493 1.6604594954 -0.2516968305
C 1.7511246248 2.5072448802 0.6533693401
H 2.0260200092 3.5631956337 0.5556970729
H 1.9089911964 2.2305472755 1.7018668626
H 2.4559681833 1.9141236929 -1.3020212748
H 3.6912716865 1.8707375504 -0.0433467016
H 0.0766832032 2.8249684718 -0.5021723996
H -0.2639574794 2.6739569998 1.0722079739
H 2.7577052619 -0.1196363225 0.7840395231
H 2.7749500870 -0.3201801100 -0.8193800324
N 0.0381285450 -2.3542429701 0.2095699455
N -0.3676971023 -0.3501146554 2.2756557244
C -0.6906052492 -1.7895764498 2.5062838751
C 0.2142167475 -2.6745272769 1.6585379667
H 0.0067316257 -3.7291554002 1.8690208868
H 1.2646896765 -2.4930880890 1.9111069335
H -1.7393166447 -1.9487167499 2.2311493881
H -0.5911292041 -2.0641914565 3.5621402178
H -0.8232250069 -2.7963220911 -0.1205041186
H 0.7800460217 -2.8125524558 -0.3225669974
H 0.4617525811 -0.1127319192 2.8242139771
H -1.1130546179 0.2247553858 2.6711443507
N -2.3153540592 0.3295883126 -0.3520198757
N -0.2489473026 -0.0757195970 -2.3559139170
C -1.6979034154 -0.2513379901 -2.6765674591
C -2.5455140005 0.6533937815 -1.7914072886
H -3.6013599680 0.5545643323 -2.0662681880
H -2.2698162408 1.7020589450 -1.9498755588
H -1.9507812240 -1.3018122803 -2.4955732010
H -1.9081300663 -0.0433872858 -3.7311537890
H -2.8639326815 -0.5000970976 -0.1154694515
H -2.7112632770 1.0745320234 0.2231140406
H 0.0815536452 0.7854755658 -2.7979838578
H 0.2830808835 -0.8178024183 -2.8140850625
