21
# extracted from Terachem optimization
Mn -0.0002783479 -0.0000187519 0.0005130253
N -0.2210739619 2.0804816331 0.3692599408
H -1.2023007433 2.3096554592 0.5513444466
H 0.2875899927 2.4355469290 1.1843142865
H 0.0438150793 2.6877759608 -0.4117108030
N 2.0895999226 0.2648377963 -0.2795620216
H 2.3238471713 1.2615004294 -0.2936843868
H 2.6881397460 -0.1372999958 0.4476896267
H 2.4498377935 -0.0951451336 -1.1683097276
N 0.2218091407 -2.0813328829 -0.3636440261
H 1.2062393050 -2.3136795163 -0.5227537248
H -0.0628247034 -2.6870893170 0.4116075333
H -0.2692790257 -2.4357470894 -1.1896833870
N -2.0906731371 -0.2645059422 0.2739158133
H -2.3311174671 -1.2596220974 0.2524502167
H -2.4484168835 0.0657305577 1.1750746305
H -2.6871069707 0.1665702572 -0.4383866044
C 0.2905201411 -0.3029976866 1.8863189275
O 0.4705091329 -0.4836450650 2.9931005957
C -0.2902478240 0.3034617493 -1.8855089629
O -0.4685962048 0.4855510945 -2.9923136713
