25
# extracted from Terachem optimization
Mn -0.0098274291 -0.0071221169 -0.0090975538
N -0.2196392134 2.0535892876 0.4056265230
H -1.0892983000 2.2893969412 0.9002286720
H 0.5266651796 2.4336021594 1.0019885963
H -0.2276716158 2.6335753183 -0.4431677883
N 2.0664542763 0.2280267263 -0.3269184456
H 2.3446387331 1.2095661996 -0.4494814510
H 2.6523464518 -0.1243802517 0.4412021452
H 2.4007215343 -0.2463982912 -1.1759239014
N 0.2196470740 -2.0897228091 -0.2622391616
H 1.1657159392 -2.4235476061 -0.0381537174
H -0.4063698711 -2.6545618383 0.3264649671
H 0.0473748689 -2.4009890289 -1.2270962071
N -2.0903885287 -0.3110755192 0.1804579273
H -2.4491557596 -1.0960157295 -0.3789737946
H -2.3760063228 -0.5092978772 1.1482682505
H -2.6577750153 0.4950222293 -0.1119733098
N 0.3217736066 -0.2919649104 2.3368922916
H -0.4175224786 0.0934242777 2.9367613864
H 0.3912336820 -1.2709743086 2.6383508714
H 1.1764496443 0.1339263324 2.7152569491
N -0.2954948612 0.4085516400 -2.3344671630
H -1.2605092131 0.6433736028 -2.5953282750
H 0.2564476757 1.1823696288 -2.7239757429
H -0.0698595087 -0.3783865033 -2.9546837669
