36
# extracted from Terachem optimization
Mn 0.0008543975 0.0001042022 -0.1413288742
C 0.0038764856 0.0008744557 2.4840138979
O 0.0010834618 0.0023945915 3.6138888245
C 0.0036115799 2.3076057019 0.0016674886
N 0.0304542067 3.4668066252 0.0711368386
C 0.0730971952 4.8949492071 0.1567107399
H 0.8986830311 5.2635587276 -0.4570145302
H 0.2241829332 5.1838285905 1.1998064414
H -0.8727007174 5.3020756054 -0.2085168651
C 2.3086539050 0.0145060851 -0.0027328493
N 3.4681922907 0.0333467743 0.0637629046
C 4.8968573751 0.0615274299 0.1463906362
H 5.3032552497 -0.7687085891 -0.4361762803
H 5.1941751986 -0.0371079001 1.1933417850
H 5.2580720641 1.0105300953 -0.2570750905
C -0.0022208502 -2.3072554585 0.0024726191
N -0.0292810755 -3.4664263097 0.0720992800
C -0.0728481128 -4.8945385418 0.1574314547
H -0.8988015180 -5.2622788190 -0.4563043932
H -0.2240661229 -5.1835026384 1.2004733969
H 0.8726333319 -5.3022541925 -0.2079365318
C -2.3075153978 -0.0131752050 0.0000653246
N -3.4670770545 -0.0330141513 0.0652540873
C -4.8962015408 -0.0636678537 0.1401145938
H -5.2799230424 -0.6904266954 -0.6686135506
H -5.2813063932 0.9538774897 0.0388107253
H -5.1924705666 -0.4779640402 1.1068393333
O -0.0010049064 -0.0000688501 -2.4161148888
C 0.8005906102 -0.7771952603 -3.2509435820
C 0.5158791197 -0.5002370095 -4.5420130744
C -0.5195839749 0.5016239411 -4.5412253300
C -0.8031869260 0.7777736473 -3.2497404273
H 1.4875419133 -1.4424924288 -2.7527139837
H 0.9833303128 -0.9467145337 -5.4086446779
H -1.4898700791 1.4425100320 -2.7503821071
H -0.9876954282 0.9489341673 -5.4070588968
