37
# extracted from Terachem optimization
Mn -0.0001724030 0.0003482242 -0.0004077232
C -0.0315878206 1.9887811569 -0.0303440001
N -0.0264171564 3.1518212514 -0.0245448998
C -0.0091862402 4.5813137721 -0.0069373540
H 0.8295043404 4.9397162122 -0.6085592709
H 0.1018376723 4.9247923467 1.0245738996
H -0.9480114597 4.9582352043 -0.4200244393
C 1.9885700574 -0.0295566303 -0.0309070385
N 3.1515890932 -0.0244824380 -0.0243056447
C 4.5811347769 -0.0097700352 -0.0058098975
H 4.9570515929 -0.8411341140 -0.6071810434
H 4.9279762112 -0.1160692561 1.0250139334
H 4.9373525239 0.9361223942 -0.4209315418
C 0.0312186391 -1.9885892409 0.0288473020
N 0.0267398516 -3.1515289607 0.0234616649
C 0.0114385185 -4.5811713442 0.0071290936
H -0.8285833777 -4.9204576194 -0.6043145630
H -0.1039596718 -4.9529761934 1.0280453737
H 0.9483904940 -4.9490245546 -0.4179412406
C -1.9889195782 0.0304665729 0.0304102392
N -3.1519385641 0.0255624627 0.0247858040
C -4.5815031683 0.0109440694 0.0073438008
H -4.9204725403 -0.5994512232 -0.8335779918
H -4.9523642160 1.0322820445 -0.1077770674
H -4.9506734134 -0.4144904184 0.9435338183
C -0.0283028979 -0.0288708539 1.9879151792
N -0.0224922374 -0.0225985426 3.1509439837
C -0.0058672546 -0.0075979188 4.5805629022
H 0.6056824414 -0.8369282335 4.9441200967
H -1.0277582866 -0.1092467553 4.9539346414
H 0.4171378670 0.9404640255 4.9227406533
C 0.0284057464 0.0301046303 -1.9880500319
N 0.0225683947 0.0238904572 -3.1510249397
C 0.0066499381 0.0070709674 -4.5805356062
H -0.6043037394 -0.8334450257 -4.9198736917
H 1.0279174695 -0.1083036348 -4.9515373233
H -0.4186516210 0.9437761666 -4.9487800794
