30
# extracted from Terachem optimization
Mn -0.0216046194 0.0051917908 0.1278336746
O -0.3841937422 2.1073378697 0.0516911201
H 0.3493618656 2.7447904613 -0.0589296639
H -1.1742203158 2.5161250034 -0.3538283315
O 2.0536057335 0.3868632748 0.0492898224
H 2.6132823437 0.4996227896 -0.7439551890
H 2.6498979960 0.4662673602 0.8202039535
O 0.3554269876 -2.0974433263 0.0521211797
H 1.1247752464 -2.5018438607 -0.3962334797
H -0.3783369957 -2.7406437682 -0.0178552446
O -2.0901647276 -0.3760863004 0.2607991266
H -2.5923889463 -0.4418119653 1.0966354206
H -2.7383725664 -0.4861144335 -0.4627347877
C -0.1207778064 -0.0230310428 -1.9891787217
N -0.1578948407 -0.0394697188 -3.1458244101
C -0.2038993308 -0.0569159550 -4.5852822696
H -0.9053200093 -0.8352639180 -4.9007446049
H 0.8008357261 -0.2748467048 -4.9601823907
H -0.5355807026 0.9253639629 -4.9338216208
C 0.1635804414 0.0221627450 4.9083032636
C -0.4197543020 1.0887733308 4.2159955624
C -0.4465365411 1.0690767136 2.8277570933
N 0.0727220833 0.0199332859 2.1289703574
C 0.6330180694 -1.0292810529 2.7945364077
C 0.6964864331 -1.0474518141 4.1816617069
H 0.2012794834 0.0240692353 5.9953972770
H -0.8481029489 1.9409948414 4.7358495921
H -0.8669910145 1.8912902091 2.2642833619
H 1.0149476080 -1.8527621783 2.2064788455
H 1.1527414488 -1.9023253842 4.6728573705
