33
# extracted from Terachem optimization
Mn -0.0000453730 0.0002535893 -0.0197274034
C 0.0001524579 0.0001320577 1.8665635978
O 0.0001220515 0.0000887116 3.0058448141
C -0.0006503700 2.0024735655 -0.0312909709
N -0.0005361371 3.1629936244 -0.0233773571
C 0.0009463132 4.5940425935 0.0004171661
H 0.8359387853 4.9581811903 -0.6032493079
H 0.1078608809 4.9345961468 1.0329908372
H -0.9421203797 4.9560734066 -0.4167195243
C 2.0023167488 0.0008493928 -0.0316959512
N 3.1627851719 0.0006853496 -0.0235650348
C 4.5938727370 -0.0007365890 0.0004604798
H 4.9581278845 -0.8357466106 -0.6031183016
H 4.9342522162 -0.1076822682 1.0330872169
H 4.9559223593 0.9423646489 -0.4165892482
C 0.0006924957 -2.0021688910 -0.0313870915
N 0.0005644007 -3.1626038074 -0.0233933321
C -0.0008128237 -4.5937153974 0.0003658818
H -0.8358580280 -4.9578815417 -0.6032176988
H -0.1076668482 -4.9342362856 1.0329552417
H 0.9422640154 -4.9556521080 -0.4168375775
C -2.0023152810 -0.0003136959 -0.0303321502
N -3.1628234955 -0.0008593078 -0.0221622657
C -4.5939038598 -0.0020282387 -0.0011281156
H -4.9626610698 -0.6063006578 -0.8334493296
H -4.9487231830 1.0266019952 -0.1039468283
H -4.9370949625 -0.4191891242 0.9486294571
C -0.0004256921 0.0005463664 -2.0008232856
N -0.0005947879 0.0007075700 -3.1634423708
C -0.0000320901 -0.0001083385 -4.5947214886
H -0.6060193023 -0.8354384023 -4.9539562647
H 1.0263979164 -0.1080379346 -4.9535947816
H -0.4199337170 0.9421080100 -4.9552369952
