13
# extracted from Terachem optimization
Mn 0.0000000800 0.0000004447 0.0000003411
C -0.0000000882 2.3236632474 0.0000000995
O -0.0000000192 3.4452302957 -0.0000000459
C 2.3214328114 -0.0000001221 0.0000000648
O 3.4429812597 -0.0000000122 -0.0000000108
C -0.0000000434 -2.3236633357 0.0000000620
O -0.0000000355 -3.4452302822 -0.0000000051
C -2.3214326629 -0.0000000782 0.0000001177
O -3.4429815080 0.0000000010 -0.0000000382
C 0.0000000893 -0.0000000535 2.1217178982
O 0.0000000007 -0.0000000293 3.2416615157
C 0.0000001167 -0.0000000476 -2.1217180641
O -0.0000000053 -0.0000000331 -3.2416619374
