69
# extracted from Terachem optimization
Mn -0.0011646320 0.0169575383 -0.0042075995
C -0.3952559351 1.9834176264 -0.2025718205
N -0.5974872064 3.1185616460 -0.3366524013
C -0.8506920520 4.5671412077 -0.5141887064
C -1.7743264883 5.0009721986 0.6411232040
H -1.3000821578 4.8480799367 1.6148887045
H -2.7318842682 4.4730622336 0.6110259265
H -1.9740541982 6.0704414020 0.5269120386
C 0.5139711031 5.2749400688 -0.4530134794
H 1.0027901159 5.1235753136 0.5139355807
H 0.3466614107 6.3482883670 -0.5805288080
H 1.1755760541 4.9390836815 -1.2569110012
C -1.5298395592 4.7383747484 -1.8850323775
H -2.4854902846 4.2079556357 -1.9308986116
H -0.8815980916 4.4001810789 -2.6988028626
H -1.7281487664 5.8037166103 -2.0335674658
C 1.9827801392 0.2131779591 -0.3052050436
N 3.1225139109 0.3451890532 -0.4816177877
C 4.5761467568 0.5187864264 -0.7094589137
C 4.7304458254 1.1814523472 -2.0924511250
H 4.2488559000 2.1630261219 -2.1241758976
H 4.3294710193 0.5475645550 -2.8887417478
H 5.7988489019 1.3221637052 -2.2804463653
C 5.1043154446 1.4197476423 0.4205727043
H 4.6251184150 2.4032163500 0.4093623744
H 6.1768831557 1.5664693908 0.2646684804
H 4.9683304387 0.9552551488 1.4018230661
C 5.2098356808 -0.8831316692 -0.6740048154
H 4.8116474572 -1.5247871355 -1.4655030885
H 5.0660044227 -1.3635648351 0.2983234949
H 6.2854531810 -0.7725782234 -0.8392375131
C 0.3688275022 -1.9547817016 0.2030739312
N 0.5603837506 -3.0920471893 0.3387079467
C 0.8061202486 -4.5410258941 0.5113529018
C 1.2087858435 -5.0869285165 -0.8741629547
H 2.1212106012 -4.6105815785 -1.2440621223
H 0.4049183937 -4.9636116804 -1.6057044312
H 1.4050298372 -6.1577739663 -0.7667621847
C 1.9439862338 -4.6878852228 1.5364949143
H 2.8661927427 -4.2172249616 1.1833371026
H 2.1412690124 -5.7548676140 1.6738483576
H 1.6665820604 -4.2692863332 2.5084598068
C -0.5091622011 -5.1657124955 1.0104685655
H -1.3187819881 -5.0279332353 0.2878554181
H -0.8063149033 -4.7542246238 1.9795845144
H -0.3472315395 -6.2402306941 1.1351406772
C -1.9746607427 -0.2260902339 0.3139503674
N -3.1086520088 -0.3931274112 0.4994200826
C -4.5527013090 -0.6067883794 0.7353440223
C -5.3045953202 0.3658443411 -0.1953392928
H -5.0926638582 0.1596432652 -1.2485046143
H -5.0635765682 1.4079693571 0.0332447836
H -6.3767088256 0.2226664980 -0.0323170898
C -4.8579288379 -2.0760826972 0.3973927016
H -4.6461848658 -2.2998216423 -0.6523631522
H -5.9236332154 -2.2504732264 0.5706003562
H -4.2955851636 -2.7599303032 1.0399313375
C -4.8154483584 -0.2893762303 2.2205384638
H -4.5751871878 0.7507215452 2.4591711048
H -4.2542457683 -0.9581412109 2.8796574887
H -5.8813397496 -0.4429119839 2.4118857496
N 0.4282712021 0.4533132064 1.9848844865
H -0.4066008259 0.7494116599 2.4972713947
H 0.8016247480 -0.3627635776 2.4777025733
H 1.1197846494 1.1989104615 2.0967076562
N -0.3492392564 -0.2371385445 -2.0442303859
H -1.1610811991 0.2809636034 -2.3890447091
H 0.4510795006 0.0518734245 -2.6140912126
H -0.5089919149 -1.2234841119 -2.2644054292
