55
# extracted from Terachem optimization
Mn 0.0091173209 -0.0112360131 -0.0198078031
N 0.0567179654 2.1403615564 -0.1237146964
N 2.0857027011 0.2916115294 0.2059793400
C 2.4619695875 1.6541770653 -0.2622224572
C 1.4214117535 2.6340796919 0.2596036995
H 1.6082044421 3.6447623646 -0.1170643092
H 1.4640877635 2.6761273000 1.3522732330
H 2.4672518686 1.6415968607 -1.3571261486
H 3.4648428835 1.9446979398 0.0692030493
H -0.1533816326 2.4865812731 -1.0627529405
H -0.6359946441 2.6095110265 0.4637949678
H 2.2954285929 0.2091627008 1.2032136687
H 2.6683571750 -0.4121144150 -0.2514173010
N 0.1900604736 -2.0584707613 0.1858300614
N -0.1622365713 -0.1732341781 2.0263550211
C 0.3787695390 -2.9775815476 -0.7835596128
H 0.4461441080 -2.5985228261 -1.7971850218
C 0.4731359561 -4.3434407131 -0.5443134419
H 0.6232532832 -5.0304253199 -1.3700376797
C 0.3722691669 -4.7975892394 0.7740913831
C 0.2122178346 -3.8545946304 1.7888709027
H 0.1668428122 -4.2016637148 2.8148156016
C -0.1375507556 -1.7252380675 3.8655354029
H -0.0730524977 -2.7409178535 4.2387428622
C -0.2824139374 -0.6840272627 4.7825446787
C -0.4129782368 0.6184394390 4.2933868707
H -0.5538913157 1.4614411231 4.9615763687
C -0.3503001942 0.8196113470 2.9194255321
H -0.4372081779 1.8194670699 2.5094659084
C 0.1180873276 -2.4952517600 1.4743934612
C -0.0703505131 -1.4487734225 2.4965202322
P -0.2474679879 -1.1166967866 6.5616970507
P 0.3955942535 -6.5558184889 1.2764383512
O 0.5993830903 -6.7195286498 2.7311144515
O -1.0162468256 -7.1116181707 0.7167263995
H -1.5306210773 -7.5455466901 1.4219221598
O 1.4892500578 -7.1033940932 0.2355418254
H 1.7549017185 -8.0302679259 0.3812629722
O -0.7000614396 -2.5029477750 6.7963624076
O -1.0833740587 0.0553193178 7.2913054694
H -1.8812946519 -0.2863220439 7.7343080816
O 1.2802536937 -0.6992049919 6.8388542650
H 1.5836262464 -0.8760434804 7.7491225792
N -2.0691056237 -0.2394298044 -0.3105072847
N -0.0406497372 0.0345645965 -2.1710211619
C -1.4096668995 -0.3499854780 -2.6525351595
C -2.4455831024 0.1989204119 -1.6827007292
H -3.4505183908 -0.1339855370 -1.9645268535
H -2.4455308916 1.2937989008 -1.6951728786
H -1.4592945634 -1.4430410641 -2.6711139763
H -1.5962490873 0.0054816978 -3.6708622701
H -2.2803218361 -1.2340718686 -0.2046902057
H -2.6487722058 0.2358248163 0.3836722946
H 0.1869552909 0.9548792716 -2.5546543651
H 0.6429342439 -0.5830840683 -2.6138327608
