42
# extracted from Terachem optimization
Mn -0.0012862082 0.0018832887 0.1287403975
C 0.0665899703 1.9774244156 0.0095633069
N 0.0989410521 3.1327897953 -0.1403155419
C 0.1308631667 4.5493534429 -0.3319703741
H 0.9549338069 4.8053105364 -1.0025266473
H 0.2781135971 5.0408627694 0.6330086117
H -0.8164305250 4.8753821031 -0.7684488777
C 1.9919418311 0.0513160808 0.1268482234
N 3.1552027650 0.0720507345 0.1106880155
C 4.5846547003 0.0936175369 0.0835356189
H 4.9449411671 -0.7246675858 -0.5447478708
H 4.9648116487 -0.0306362468 1.1003962367
H 4.9265082211 1.0488905320 -0.3225288292
C -0.0685881855 -1.9736559026 0.0094801343
N -0.0997571021 -3.1289840450 -0.1402940754
C -0.1293958511 -4.5456295595 -0.3319211226
H -0.9539125063 -4.8029748168 -1.0013859522
H -0.2745214489 -5.0374664970 0.6332095885
H 0.8179753745 -4.8698265143 -0.7696172199
C -1.9945499263 -0.0479927262 0.1289777922
N -3.1577369840 -0.0704299237 0.1111040865
C -4.5870851379 -0.0942872257 0.0788195619
H -4.9177969877 -0.7341223809 -0.7433079165
H -4.9621511842 0.9208556661 -0.0715662237
H -4.9632390101 -0.4897713414 1.0254693799
C -0.0023467368 0.0013071556 -1.8694493589
N -0.0019326809 -0.0000209902 -3.0322784527
C -0.0005639340 -0.0052834723 -4.4619445885
H -0.6229134877 -0.8281806434 -4.8218657280
H 1.0251770523 -0.1331828781 -4.8169546460
H -0.3983031013 0.9462624534 -4.8236134191
C 0.0001990559 -0.0003036644 5.0738736880
C -0.1515061445 1.1859299981 4.3576934034
C -0.1418466128 1.1446320361 2.9685044583
N 0.0013453510 0.0010245674 2.2597910518
C 0.1447825946 -1.1431744473 2.9675343958
C 0.1533839013 -1.1857657041 4.3566760658
H -0.0009837394 -0.0009269860 6.1597001911
H -0.2735111761 2.1385590314 4.8620003327
H -0.2567567771 2.0548319422 2.3963163442
H 0.2605539424 -2.0528892522 2.3947071064
H 0.2755943153 -2.1387982467 4.8601928218
