50
# extracted from Terachem optimization
Mn 0.0005661805 -0.0207392806 0.0930371690
C 0.1628770869 0.0411201100 -2.5728246442
O 0.1598842504 0.0937161083 -3.7021491840
O -0.2977230808 -0.0168148982 2.3686566253
H 0.4021809549 -0.0682194921 3.0408081725
H -1.1401098523 0.0884041051 2.8413938916
C 0.0194387710 5.0937705696 0.0093717448
C 0.4994774107 4.3790303835 1.1080414068
C 0.4578150223 2.9896860085 1.0735278138
N -0.0285732640 2.2920782592 0.0240051213
C -0.4988241213 2.9953293906 -1.0287046875
C -0.4913063888 4.3850837963 -1.0793379920
H 0.0393689451 6.1793040894 0.0033263428
H 0.8992112653 4.8861564803 1.9796614630
H 0.8167066680 2.4015193546 1.9111478870
H -0.9063083859 2.4180280813 -1.8531712935
H -0.8802735829 4.8957494012 -1.9540431291
C 5.0554771076 0.0001749095 0.4474826501
C 4.3053604971 -1.0042551162 1.0615781141
C 2.9195536596 -0.9641592869 0.9577961399
N 2.2585244666 0.0131284036 0.2981990796
C 2.9945398262 0.9836583469 -0.2869142487
C 4.3842412816 1.0110316989 -0.2421653810
H 6.1398256460 -0.0047717038 0.5045708004
H 4.7822012800 -1.8105940044 1.6090450266
H 2.3088125669 -1.7428579828 1.4039531324
H 2.4389840999 1.7608655619 -0.8021114315
H 4.9248445674 1.8099069408 -0.7390193544
C 0.0422511179 -5.0988132956 -0.0601691320
C -0.5098452717 -4.4088817829 1.0206474934
C -0.4795315651 -3.0183420888 1.0145885371
N 0.0693778384 -2.2996788115 0.0105042790
C 0.6137954124 -2.9782429402 -1.0220421569
C 0.6164236387 -4.3664183036 -1.1004522612
H 0.0280551394 -6.1840976659 -0.0896203192
H -0.9588413428 -4.9361403468 1.8559406214
H -0.8912989308 -2.4431976554 1.8375894422
H 1.0694300422 -2.3825264091 -1.8070444485
H 1.0626414237 -4.8581050758 -1.9581373315
C -5.0384717974 -0.0032746425 -0.5270365416
C -4.2650180933 -1.0345491940 -1.0609933047
C -2.8879338740 -1.0082843496 -0.8701667810
N -2.2567719591 -0.0213872729 -0.1980033256
C -3.0155944516 0.9735277427 0.3134019736
C -4.3986241361 1.0177821154 0.1778990250
H -6.1160552584 0.0077261915 -0.6593940086
H -4.7159403008 -1.8487057968 -1.6181349373
H -2.2591185360 -1.8002654711 -1.2628353618
H -2.4806903332 1.7604445334 0.8358854806
H -4.9585013344 1.8396423906 0.6117784742
