61
# extracted from Terachem optimization
Mn -0.0089614171 -0.0234675933 0.0104152462
N 0.4123030985 1.9841112033 0.2472435660
N 2.0240952224 -0.0345189911 -0.2615881294
C -0.4885113064 2.9501244412 0.5233344827
H -1.5172091704 2.6420721474 0.6639807437
C -0.1325438765 4.2909087968 0.6286858654
H -0.8908434075 5.0328206632 0.8554735439
C 1.2013439060 4.6478574940 0.4320470689
H 1.5139792965 5.6854315045 0.5011352732
C 2.1354903451 3.6516672150 0.1455404159
H 3.1752325664 3.9161023013 -0.0057500763
C 4.0018292937 1.3136474316 -0.4088602020
H 4.4787834311 2.2859943270 -0.3743663926
C 4.7723577488 0.1735172084 -0.6416219606
H 5.8444887589 0.2613307208 -0.7897864408
C 4.1481875505 -1.0736724519 -0.6751901261
H 4.7103623267 -1.9855223934 -0.8466443362
C 2.7730103165 -1.1362465832 -0.4786309019
H 2.2512897405 -2.0845950733 -0.4922514979
C 1.7224698027 2.3221701941 0.0584673590
C 2.6255798578 1.1914291050 -0.2167374522
N -0.2360050619 -2.0577744981 0.1320707096
N 0.1776987282 -0.4060885197 2.2384062429
C -0.5162411859 -2.8226646022 -0.9478900860
H -0.5486275261 -2.3065906534 -1.8991730798
C -0.7461167810 -4.1877171895 -0.8558815591
H -0.9639422217 -4.7619104389 -1.7500559108
C -0.6964947339 -4.7841984100 0.4053967927
H -0.8802502902 -5.8479757832 0.5231136414
C -0.4112879271 -3.9971196657 1.5201295337
H -0.3828533506 -4.4555010591 2.5009253655
C 0.3770441847 -2.2108656367 3.8095445849
H 0.3591459621 -3.2711050215 4.0306302098
C 0.6562955601 -1.3028796526 4.8324709219
H 0.8442190245 -1.6593905543 5.8406341050
C 0.6932746228 0.0593751028 4.5394355936
H 0.9050589907 0.7975744569 5.3056735671
C 0.4530364469 0.4617631594 3.2273820079
H 0.4775333278 1.5142018827 2.9633818583
C -0.1765806390 -2.6265687129 1.3737734070
C 0.1363124152 -1.7344515665 2.5176977460
N -2.0298204188 0.2605195404 -0.0954528533
N -0.3587153011 0.2266110426 -2.2210369983
C -2.8267776324 0.1626315555 0.9931683597
H -2.3251776019 -0.0360513674 1.9321552522
C -4.2047550604 0.3082521317 0.9226066945
H -4.8045859563 0.2266779398 1.8227046776
C -4.7824029294 0.5500507977 -0.3253749573
H -5.8577650428 0.6633915598 -0.4254605690
C -3.9634984987 0.6348053067 -1.4500484328
H -4.4101576016 0.8018076205 -2.4222397238
C -2.0640553773 0.9084631418 -3.7684867199
H -3.0914335499 1.1837863888 -3.9734179918
C -1.1314858523 0.9221571535 -4.8069777014
H -1.4386324336 1.1983673678 -5.8110656602
C 0.1915051887 0.5775036391 -4.5351427677
H 0.9460615230 0.5693786216 -5.3145760849
C 0.5332251585 0.2418654556 -3.2269671628
H 1.5539717589 -0.0294535697 -2.9775382997
C -2.5783547294 0.4872191254 -1.3261257592
C -1.6518124283 0.5486384060 -2.4822981581
