45
# extracted from Terachem optimization
Mn -0.0792034204 0.0749435055 -0.0342216830
N 0.1327623957 2.3499163410 0.4447768660
N 2.2195807507 0.3884316462 0.0235063555
C 2.5229312687 1.8456230468 0.0487774407
C 1.5246466717 2.5748383419 0.9414737512
H 1.7732754548 3.6410341262 0.9801432293
H 1.5785340211 2.1873642821 1.9647648902
H 2.4528277876 2.2194376721 -0.9790995587
H 3.5417898845 2.0488097928 0.3972099216
H 0.0025566314 2.9085483379 -0.4023757917
H -0.5326993905 2.7452159427 1.1111861023
H 2.5519750153 -0.0426121221 0.8888689512
H 2.7536304421 -0.0636389874 -0.7196342663
N 0.2794534183 -2.2019077540 0.0040314977
N -0.3134762157 -0.6482731514 2.1407762293
C 0.6266026567 -2.9237394299 -1.0757877324
H 0.6321124307 -2.3888024174 -2.0210812221
C 0.9637847689 -4.2721147553 -1.0256956598
H 1.2349284508 -4.8043565336 -1.9310127573
C 0.9458527705 -4.9030387787 0.2171587908
H 1.2087115070 -5.9520260629 0.3114263636
C 0.5872171080 -4.1673711641 1.3448006893
H 0.5814464742 -4.6510208339 2.3135571983
C -0.3675620461 -2.5090831568 3.6532077121
H -0.2555075119 -3.5700166890 3.8388245692
C -0.7443093651 -1.6708900454 4.7005807264
H -0.9135948470 -2.0795857355 5.6918878109
C -0.9041876557 -0.3084920509 4.4535674872
H -1.1973690135 0.3820266918 5.2368914880
C -0.6799493108 0.1486230973 3.1593688443
H -0.7990038716 1.2010342134 2.9192688005
C 0.2502594167 -2.8145790277 1.2145009347
C -0.1513824977 -1.9742617417 2.3773874457
N -2.3885879235 -0.1764207719 -0.2414914156
N -0.4773932781 0.3349187963 -2.3187647901
C -1.8098777348 -0.2613178860 -2.6385174558
C -2.8418952369 0.1904294520 -1.6107215843
H -3.8183399907 -0.2425924958 -1.8549999168
H -2.9540473959 1.2800907590 -1.6439526967
H -1.7016931337 -1.3509832478 -2.6111690002
H -2.1434674216 0.0112363540 -3.6456694226
H -2.5644877536 -1.1713623712 -0.0827312608
H -2.9589348143 0.3077163083 0.4527849960
H -0.5073357643 1.3290841327 -2.5576646070
H 0.2273338219 -0.0552318645 -2.9467663841
