49
# extracted from Terachem optimization
Mn -0.0000444397 -0.0000705775 0.0038832960
C -0.4291719285 2.3265593255 0.3834672347
N -0.7211273924 3.4346183714 0.5769821043
C -1.0862247541 4.8029281263 0.8177162912
H -0.4112797100 5.4543836923 0.2568230167
H -1.0016440345 5.0094703816 1.8875763074
H -2.1162629271 4.9573187634 0.4866708162
C 2.0621410521 0.2943968910 -0.3021103394
N 3.1999363754 0.4184510315 -0.4740296604
C 4.6130885807 0.5632344214 -0.6891533478
H 4.8717535589 0.0899551174 -1.6400529330
H 5.1437100748 0.0763465033 0.1333400757
H 4.8564469035 1.6286695745 -0.7182166539
C 0.4276301399 -2.3270390895 -0.3761704991
N 0.7167254107 -3.4353709569 -0.5723496616
C 1.0771910029 -4.8039075430 -0.8184327669
H 0.1899894107 -5.3503965274 -1.1484334995
H 1.4632724778 -5.2407874383 0.1059325527
H 1.8450365099 -4.8330949676 -1.5956272951
C -2.0619125962 -0.2967638533 0.3112813333
N -3.1990198211 -0.4242724519 0.4852806833
C -4.6109534250 -0.5749145143 0.7040665245
H -4.9420791435 0.2050823453 1.3948597747
H -4.7959359578 -1.5630984367 1.1335105482
H -5.1267943609 -0.4760568543 -0.2546090344
C 0.7870277962 -0.6424557553 4.7609225098
C 0.1149544170 -1.6184245032 4.0030346026
C -0.0903454050 -1.3999643451 2.6511341172
N 0.3304994233 -0.2711038999 2.0246626176
C 0.9787225695 0.6727069374 2.7544134784
C 1.2244136113 0.5247767368 4.1091000986
C 1.0190339140 -0.8315555185 6.1564806292
H -0.2439382695 -2.5324198062 4.4642514464
H -0.6033993704 -2.1390036593 2.0482680130
H 1.3006243322 1.5646111914 2.2313418442
H 1.7502983612 1.3027903997 4.6523013931
N 1.2079017720 -0.9854066746 7.2939997756
C -0.7861674940 0.6441243666 -4.7531387530
C -0.1142111960 1.6197454171 -3.9947158588
C 0.0910364333 1.4004332702 -2.6429519562
N -0.3299355380 0.2713228070 -2.0169916105
C -0.9779363687 -0.6721676816 -2.7473693909
C -1.2233639732 -0.5235804082 -4.1020187894
C -1.0181067013 0.8339031347 -6.1486141011
H 0.2446198483 2.5340560849 -4.4553506447
H 0.6043600009 2.1389902999 -2.0397811576
H -1.2995940103 -1.5644963908 -2.2249265104
H -1.7487317522 -1.3015429702 -4.6457895425
N -1.2069164237 0.9882306955 -7.2860788037
