85
# extracted from Terachem optimization
Mn -0.0057004365 -0.0159185207 -0.0000934284
C 0.2953676442 2.2901144213 -0.3767182683
N 0.3745201398 3.4402758424 -0.5403235481
C 0.4531336392 4.8879785601 -0.7402191464
C -0.0172109190 5.5572385462 0.5635767381
H 0.6295851668 5.2860903458 1.4033762008
H -1.0473120984 5.2764900723 0.8025400649
H 0.0220454068 6.6430169757 0.4379047997
C 1.9188294513 5.2358729375 -1.0525075398
H 2.5779827245 4.9501807289 -0.2271605287
H 2.0013439848 6.3168550481 -1.1966783235
H 2.2577582965 4.7422038978 -1.9683515935
C -0.4719786518 5.2401711718 -1.9185475805
H -1.5080809427 4.9615774846 -1.7044488294
H -0.1513481601 4.7396103013 -2.8371061868
H -0.4348860619 6.3203067721 -2.0865306775
C 2.2906799405 -0.3909808691 -0.3522420246
N 3.4222318578 -0.6088828746 -0.5190864062
C 4.8435868062 -0.8838667776 -0.7291842638
C 5.1631863151 -0.5603074567 -2.1997631492
H 4.9694396374 0.4931567188 -2.4237465442
H 4.5754005640 -1.1854897496 -2.8786182057
H 6.2229084727 -0.7591963315 -2.3830011684
C 5.6365312215 0.0213724480 0.2300346369
H 5.4400506077 1.0790024129 0.0293735165
H 6.7049957169 -0.1609292556 0.0843283284
H 5.3916945556 -0.1977390277 1.2737314043
C 5.0802306653 -2.3724645664 -0.4188504448
H 4.4919911009 -3.0131473878 -1.0826755217
H 4.8282825669 -2.6047734358 0.6201921157
H 6.1389345620 -2.5982829882 -0.5743237306
C -0.3040478791 -2.3208216469 0.3750287992
N -0.3797093210 -3.4714773242 0.5365047813
C -0.4530210281 -4.9199026980 0.7331577049
C 0.0145436874 -5.5842671798 -0.5741945385
H 1.0430160077 -5.2999829246 -0.8159486953
H -0.6360886946 -5.3126241028 -1.4108716511
H -0.0213008168 -6.6704862820 -0.4513389235
C 0.4779784139 -5.2720063322 1.9068513648
H 1.5120187226 -4.9881723582 1.6897787856
H 0.4461350790 -6.3528614246 2.0712499049
H 0.1584960792 -4.7760146993 2.8282952067
C -1.9163386347 -5.2733307566 1.0502381902
H -2.5796976976 -4.9876741259 0.2282719721
H -2.2533794286 -4.7830986230 1.9686044791
H -1.9946369513 -6.3549502631 1.1919685804
C -2.3000245425 0.3713486414 0.3532840725
N -3.4256472121 0.6162751352 0.5228088834
C -4.8371213990 0.9383332477 0.7363549277
C -5.4238901218 1.3631054503 -0.6213294332
H -5.3575835128 0.5523902321 -1.3530764961
H -4.9085657538 2.2434799832 -1.0167322394
H -6.4794552158 1.6153705027 -0.4856816644
C -5.5254043371 -0.3284700559 1.2740052743
H -5.4593599542 -1.1500913729 0.5544332971
H -6.5827605045 -0.1089908532 1.4467944964
H -5.0832107397 -0.6476866032 2.2226441274
C -4.8967500037 2.0877059020 1.7579567063
H -4.3866094293 2.9785906559 1.3797101708
H -4.4447083847 1.7956720912 2.7105687287
H -5.9442029850 2.3445775320 1.9401685948
C 0.8764473624 0.7124067504 4.9938857749
C -0.1795989755 -0.1042059530 4.5628341714
C -0.3784233413 -0.2666098623 3.1975325597
N 0.3924436810 0.3218295285 2.2634189173
C 1.4042552015 1.1038099381 2.6854593031
C 1.6849132405 1.3289074769 4.0272547514
C 1.1239013917 0.9124778420 6.3912273339
H -0.8270778374 -0.5985501523 5.2783271300
H -1.1858784852 -0.8926182508 2.8309783693
H 2.0107357435 1.5659747502 1.9128314509
H 2.5111189008 1.9672709306 4.3195065215
N 1.3243534037 1.0745474761 7.5243865244
C -0.8906120185 -0.7498137919 -4.9924592685
C 0.1681049254 0.0643755221 -4.5634443144
C 0.3674240988 0.2294275364 -3.1985356546
N -0.4053441645 -0.3541677937 -2.2629612309
C -1.4196064594 -1.1340295105 -2.6830630901
C -1.7009802315 -1.3614410337 -4.0243072053
C -1.1388014854 -0.9524208285 -6.3893068458
H 0.8172858902 0.5547550250 -5.2801121236
H 1.1770889715 0.8535244714 -2.8336676312
H -2.0273690855 -1.5924651127 -1.9091884476
H -2.5292114067 -1.9978743630 -4.3150280351
N -1.3398045850 -1.1165534341 -7.5220711023
