59
# extracted from Terachem optimization
Mn 0.0108529307 -0.0005451383 -0.1942348633
O -0.0128720332 -0.0015265635 2.2206629150
H 0.7485021293 -0.1340937337 2.8132602942
H -0.7753768627 0.1300233013 2.8123624894
C -0.2127463933 4.8810504937 -0.0294386595
C -0.6921947358 4.1838699740 -1.1399177385
C -0.6116434108 2.7968085605 -1.1580373390
N -0.0783070120 2.0892735555 -0.1315976532
C 0.3917493367 2.7705810950 0.9462947213
C 0.3384178974 4.1549203023 1.0294770073
H -0.2645886780 5.9650906856 0.0095655900
H -1.1256506152 4.7018356334 -1.9891861129
H -0.9708810337 2.2309203250 -2.0054155161
H 0.8138633848 2.1821332287 1.7479654495
H 0.7302665031 4.6504820675 1.9116734842
C 4.8652136371 0.2371198027 0.4693122681
C 4.1153047883 -0.8001283327 1.0291134079
C 2.7470466105 -0.8491727619 0.7968545817
N 2.0984221621 0.0856750469 0.0535784934
C 2.8314964386 1.0961952732 -0.4821262514
C 4.2053739197 1.1974461796 -0.3011914808
H 5.9382761969 0.2950471345 0.6291940663
H 4.5810010259 -1.5714179759 1.6340205589
H 2.1479764037 -1.6550468036 1.2021850223
H 2.2949472857 1.8307562379 -1.0689445589
H 4.7432741622 2.0218464843 -0.7585447780
C 0.1009612069 -4.8882244697 -0.0797728032
C -0.4223794430 -4.1552076547 0.9886461908
C -0.4193275687 -2.7688045016 0.9251189134
N 0.0773984676 -2.0918917276 -0.1434371890
C 0.5876526128 -2.8054404207 -1.1775680729
C 0.6138117456 -4.1950066256 -1.1779800663
H 0.1067135281 -5.9741266520 -0.0564101806
H -0.8353959656 -4.6465106389 1.8637733452
H -0.8167868633 -2.1745440487 1.7353624595
H 0.9704484816 -2.2427822826 -2.0168738369
H 1.0307444217 -4.7184681167 -2.0322403790
C -4.8464923165 -0.2683180645 0.3947571689
C -4.1760574212 -1.1945382985 -0.4075189921
C -2.8009467862 -1.0822663450 -0.5704798404
N -2.0776133917 -0.0938858237 0.0159537048
C -2.7363560736 0.8099320681 0.7865870910
C -4.1068086316 0.7500269751 1.0004272231
H -5.9203811685 -0.3363940778 0.5430545195
H -4.7068353896 -2.0022327621 -0.9011100626
H -2.2559112220 -1.7888245310 -1.1836670617
H -2.1438051775 1.6012462502 1.2276734499
H -4.5819772916 1.4972968330 1.6274484450
C 0.0598415966 0.0336761319 -5.3744595807
C 1.2488477482 -0.0335813230 -4.6457802373
C 1.1884297179 -0.0422852832 -3.2563004394
N 0.0270900092 0.0115406137 -2.5599901721
C -1.1175174761 0.0779235876 -3.2830682074
C -1.1462814345 0.0915164570 -4.6734047992
H 0.0721228177 0.0409738634 -6.4602443053
H 2.2120266724 -0.0785052563 -5.1431141703
H 2.0976335674 -0.1003196466 -2.6688907446
H -2.0406301021 0.1284662323 -2.7165921533
H -2.0983688489 0.1442439079 -5.1918436412
