52
# extracted from Terachem optimization
Mn 0.0259085040 0.0206637407 -0.0193196019
C 0.0586411400 0.0178987130 2.0252235512
N 0.0771952004 0.0266488872 3.1847637507
C 0.0962401319 0.0476097623 4.6215945700
H 0.7977102564 -0.7122154145 4.9768624912
H -0.9100113129 -0.1745782018 4.9879276437
H 0.4081623546 1.0400539033 4.9570716370
O 0.0286824355 2.1264726967 -0.0004621516
C 0.9410440322 2.9172023481 0.7222477730
C 0.5752005468 4.2163491018 0.6411571148
C -0.6227657254 4.2780363572 -0.1512657560
C -0.9343663472 3.0144138604 -0.5234145583
H 1.7534176579 2.3853342057 1.1901763877
H 1.0994070832 5.0519436148 1.0867188135
H -1.7088685323 2.5697144743 -1.1272366417
H -1.1753388939 5.1705208676 -0.4152781097
O 2.5352060812 -0.0260300492 -0.0801831159
C 3.3113097015 -0.9006580628 0.6737589413
C 4.6211566851 -0.8283491944 0.2833637644
C 4.6881321814 0.1316745549 -0.7631596118
C 3.4151280035 0.5960186183 -0.9586370432
H 2.7905915932 -1.4690661016 1.4285843479
H 5.4406285845 -1.3966282397 0.7039216257
H 2.9861770614 1.3251085188 -1.6281897256
H 5.5693424916 0.4491346104 -1.3059422327
O 0.0441625058 -2.0844426804 -0.0330226933
C -0.7669067919 -2.9346078528 0.7411508772
C -0.3870980342 -4.2191332031 0.5470089965
C 0.7153300816 -4.2081468828 -0.3749743154
C 0.9567542055 -2.9180934089 -0.7093176766
H -1.5260355791 -2.4493101985 1.3333810559
H -0.8384807267 -5.0906668379 1.0043383456
H 1.6529368696 -2.4234327166 -1.3663144063
H 1.2585298764 -5.0693763634 -0.7425818048
O -2.5553744832 0.0473010568 0.0120407864
C -3.3260897711 0.8810024923 0.8129478672
C -4.6596443898 0.6958930366 0.5514371821
C -4.7452411863 -0.3009971417 -0.4555454515
C -3.4593373457 -0.6727982741 -0.7560104557
H -2.7860072140 1.5159668299 1.4985395162
H -5.4796328665 1.2134292121 1.0338212085
H -3.0397621986 -1.3886485626 -1.4445814495
H -5.6438609628 -0.7035881656 -0.9061314292
O -0.1047530154 0.0307159537 -2.0921159500
C -0.5402843118 -1.0184128343 -2.9279167892
C -0.4246909350 -0.6454363748 -4.2216077746
C 0.1017056467 0.6924629339 -4.2411700331
C 0.2843852820 1.0755946927 -2.9581728400
H -0.8532044669 -1.9180707601 -2.4267915606
H -0.6805365944 -1.2524395923 -5.0802063696
H 0.6192840560 1.9786705722 -2.4769613023
H 0.3149185010 1.2894421837 -5.1186114069
