49
# extracted from Terachem optimization
Mn 0.0057873718 0.0092776426 -0.0032140692
C 0.0115470164 -0.1517880603 1.9016751721
O 0.0226349566 -0.2405382667 3.0377232021
C 0.0220230906 0.1863836400 -1.9063729496
O 0.0371349438 0.2968824895 -3.0405478448
C -0.0326190788 4.9065942891 0.3906213117
C 0.8127839186 4.1379924176 1.1916305962
C 0.7992681605 2.7546924217 1.0557129547
N 0.0004647665 2.1116326692 0.1723349403
C -0.8126405128 2.8663399325 -0.6034842045
C -0.8580016621 4.2524420280 -0.5240702550
H -0.0471468052 5.9885993050 0.4773648804
H 1.4745946464 4.5975809047 1.9179806623
H 1.4497333677 2.1376037017 1.6643130383
H -1.4517689777 2.3343388331 -1.2981857162
H -1.5303442021 4.8011973280 -1.1744937211
C 4.9168475549 -0.0332650586 -0.0015625949
C 4.1947381811 -0.9086960189 0.8101452174
C 2.8063588237 -0.8640043310 0.7827695405
N 2.1138058973 -0.0016960563 0.0021701416
C 2.8233027680 0.8440575611 -0.7813081161
C 4.2123500225 0.8572298004 -0.8125194728
H 6.0022404254 -0.0455581507 -0.0000684501
H 4.6939449108 -1.6188416359 1.4610797421
H 2.2246283724 -1.5453281864 1.3920950007
H 2.2545190760 1.5384799405 -1.3884247955
H 4.7238000005 1.5571833463 -1.4644854289
C -0.0023233579 -4.8856954488 -0.3942095081
C -0.8044890228 -4.2413199311 0.5483459438
C -0.7798426970 -2.8540375231 0.6209920150
N -0.0027882555 -2.0899283090 -0.1820600118
C 0.7718183089 -2.7239232695 -1.0930927638
C 0.7985011418 -4.1067561045 -1.2301780271
H -0.0008233279 -5.9683292520 -0.4754962996
H -1.4406941773 -4.7997122206 1.2269049478
H -1.4044647029 -2.3298097145 1.3348490268
H 1.3931422094 -2.0991560813 -1.7235008786
H 1.4356077892 -4.5570835983 -1.9840912446
C -4.9049734052 -0.0269361253 0.0194041007
C -4.1906010938 -0.7255946921 -0.9544229548
C -2.8014908280 -0.6861894030 -0.9315115787
N -2.1016662077 0.0077813658 -0.0036909043
C -2.8035304714 0.6878814471 0.9330767598
C -4.1923836739 0.6929629675 0.9791124782
H -5.9904035047 -0.0428250472 0.0309046893
H -4.6956162436 -1.2944877258 -1.7276677607
H -2.2249752556 -1.2300516222 -1.6709216358
H -2.2291929799 1.2503883220 1.6599235520
H -4.6987689760 1.2529440473 1.7581055171
