21
# extracted from Terachem optimization
Mn 0.1145275815 -0.0002478511 -0.1073825788
C 0.1368139552 0.0099501395 2.1599053162
O 0.1424358004 0.0132564644 3.2826649298
O -0.0604213029 1.9628035677 -0.0099878925
H 0.6384846812 2.6443782520 -0.1340982955
H -0.9407495196 2.3991106728 -0.0173178271
O 2.2562192377 0.0025020063 0.0800567099
H 2.9139910968 0.0232939788 -0.6464375457
H 2.7895348303 -0.0104801686 0.9027915336
O -0.0647140047 -1.9612836737 0.0148061610
H 0.6269833937 -2.6433479148 -0.1438517949
H -0.9484591114 -2.3912903487 0.0091998880
O -2.1310194415 0.0025132361 0.1412509425
H -2.6613283568 0.0110418049 0.9653337252
H -2.7902914765 -0.0066677281 -0.5824849725
C 0.0694483695 -0.0110305313 -2.1293519771
N 0.0294687593 -0.0107587925 -3.2843129117
C -0.0227319409 -0.0084757397 -4.7226057647
H -0.6509799452 -0.8469048003 -5.0442677093
H 0.9997054748 -0.1259085333 -5.1002917565
H -0.4469189128 0.9475459885 -5.0492634203
