65
# extracted from Terachem optimization
Mn -0.0015301187 0.0009265674 0.1944058063
O -0.0081139272 0.0692476763 -2.5099692744
C 0.7482216621 -0.7395650462 -3.3496120585
C 0.4459212980 -0.4920604072 -4.6518539499
C -0.5550627842 0.5300015475 -4.6565747872
C -0.8044312497 0.8429460134 -3.3577096748
H 1.4215487949 -1.4262319493 -2.8659509423
H 0.8839519284 -0.9801345446 -5.5118449755
H -1.4732486285 1.5362241278 -2.8742996119
H -1.0297864401 0.9726718627 -5.5220604604
C -0.0995464029 4.9720445222 0.0875897193
C -0.4926971333 4.2663239335 1.2252746272
C -0.4488368621 2.8774238141 1.2108558036
N -0.0338198483 2.1678830914 0.1346106744
C 0.3342180925 2.8594613903 -0.9680756549
C 0.3159671358 4.2478988765 -1.0299990770
H -0.1182892872 6.0576418721 0.0714799546
H -0.8320791107 4.7780705667 2.1198230808
H -0.7395805919 2.3132050828 2.0847546778
H 0.6443178322 2.2902058607 -1.8326780584
H 0.6265151115 4.7431846294 -1.9442368074
C 4.9408434330 -0.0154331100 0.0862075905
C 4.2289435918 -0.6144690378 1.1273858171
C 2.8405767717 -0.5811640936 1.1081930937
N 2.1393882022 0.0180016762 0.1114586842
C 2.8358297961 0.5824882010 -0.9033958039
C 4.2248804071 0.5856156807 -0.9501075795
H 6.0267419875 -0.0222200757 0.0792850932
H 4.7373854586 -1.1095756315 1.9479460205
H 2.2654038047 -1.0491393238 1.8955530909
H 2.2703196206 1.0349797383 -1.7058938918
H 4.7286924966 1.0563393089 -1.7877653322
C -0.0111930306 -4.9512691486 -0.2164780726
C -1.1429892522 -4.2611651308 0.2196457105
C -1.1111861351 -2.8736437115 0.2745421888
N -0.0176353587 -2.1447015976 -0.0667800597
C 1.0761637806 -2.8268700298 -0.4912143799
C 1.1138075448 -4.2122201732 -0.5846654398
H -0.0056782590 -6.0357896926 -0.2682666813
H -2.0458731423 -4.7856426051 0.5151337224
H -1.9828266648 -2.3213134931 0.5955183843
H 1.9427932243 -2.2382275625 -0.7543390076
H 2.0187822524 -4.6971555373 -0.9355375601
C -4.9258762650 0.1877564655 -0.1152556320
C -4.2697919885 0.6269698310 1.0365093732
C -2.8830234632 0.5558471785 1.0941503094
N -2.1359886226 0.0674908334 0.0747239147
C -2.7784372173 -0.3678143217 -1.0375086651
C -4.1610788585 -0.3185115940 -1.1680947401
H -6.0086232931 0.2313987069 -0.1871529493
H -4.8194165272 1.0222524881 1.8845710656
H -2.3493058131 0.8771565027 1.9780735098
H -2.1678385624 -0.7845172995 -1.8278071206
H -4.6234363317 -0.6819326308 -2.0803385921
C 0.1492384831 -0.2095949873 5.3347141435
C 0.9400894728 0.7002311979 4.6287376497
C 0.8640923023 0.7223249334 3.2418309267
N 0.0525973493 -0.0978401997 2.5274379268
C -0.6940353476 -0.9855242743 3.2246780137
C -0.6792307492 -1.0704105041 4.6131505864
H 0.1816128854 -0.2482575446 6.4195995111
H 1.6068472826 1.3844911119 5.1427038274
H 1.4713747497 1.4166319581 2.6705570265
H -1.3226488793 -1.6523455463 2.6462819820
H -1.3061606339 -1.7992944314 5.1154639285
