21
# extracted from Terachem optimization
Mn 0.0543280907 0.0004507158 -0.1819433384
C 0.0647098422 -0.0013894166 2.4531886430
O 0.0657615490 0.0034572455 3.5821229246
O -0.0325834045 2.1414455107 0.2225255214
H 0.7039017102 2.7752514970 0.1604373964
H -0.8491778461 2.6705072059 0.2424174458
O 2.2496171853 0.0011480905 0.0919904991
H 2.9156355889 -0.0052282869 -0.6177841643
H 2.7433720547 0.0048939330 0.9306982482
O -0.0340624372 -2.1410300144 0.2246668099
H 0.7022283256 -2.7746538232 0.1588228419
H -0.8509130836 -2.6698255867 0.2454110804
O -2.1825016846 -0.0000915920 0.1051563875
H -2.6918624836 -0.0032653821 0.9344131599
H -2.8384766386 0.0092757208 -0.6133910602
C 0.0301561600 0.0015439500 -2.4178594865
N 0.0117622342 -0.0016676542 -3.5776480207
C -0.0120962087 -0.0023451380 -5.0104483607
H -0.6277600088 -0.8380606008 -5.3528240397
H 1.0101664780 -0.1161641945 -5.3797501428
H -0.4322063423 0.9457478282 -5.3558472653
