17
# extracted from Terachem optimization
Mn 0.0004350927 -0.0003179581 -0.0995088815
C -0.0966437462 2.0301558005 -0.0198937740
O -0.1401041162 3.1515141660 0.0169657650
C 2.0309527853 -0.0985252989 -0.0182290656
O 3.1523829736 -0.1417628951 0.0199023518
C 0.0968271360 -2.0311465504 -0.0207505886
O 0.1405151388 -3.1525436929 0.0163220885
C -2.0303640598 0.0966185612 -0.0201992566
O -3.1517261169 0.1408500156 0.0168997835
C -0.0000158771 -0.0002665154 2.0236187466
O -0.0003011642 0.0003090283 3.1455761002
C -0.0008324275 0.0018938633 -2.0399135045
N 0.0012346300 0.0077692129 -3.2104804853
C 0.0087880658 0.0318255124 -4.6166497573
H -0.5907170296 -0.8426512395 -4.9786451692
H 1.0361694578 -0.1491841136 -4.9834814745
H -0.4566017734 0.9554620421 -4.9871778503
