49
# extracted from Terachem optimization
Mn -0.0014284618 0.0023568091 -0.0000612327
C 0.4032704985 2.3079392320 -0.3428988846
N 0.6627379405 3.4314214680 -0.4968065311
C 0.9902629844 4.8116958250 -0.6832824172
H 1.9951903409 4.8870930547 -1.1055473128
H 0.9554602199 5.3214570426 0.2825578163
H 0.2669365857 5.2631839141 -1.3665284628
C 2.3153887045 -0.3103571364 0.3783141996
N 3.4628112392 -0.4003452737 0.5475574905
C 4.8752347807 -0.5025850221 0.7530296548
H 5.1971130461 -1.5227582865 0.5305076289
H 5.1046554659 -0.2609253088 1.7936462559
H 5.3847610598 0.1995555746 0.0887716475
C -0.4027359676 -2.3039686466 0.3448732944
N -0.6554562712 -3.4287034443 0.5008660482
C -0.9726766717 -4.8111037074 0.6899091941
H -1.6373255282 -5.1386434032 -0.1131164277
H -1.4684064967 -4.9362725842 1.6555499962
H -0.0502469139 -5.3964224730 0.6686602096
C -2.3185023753 0.3091351154 -0.3775400446
N -3.4667246459 0.3898102588 -0.5459604278
C -4.8801496128 0.4771281625 -0.7511059681
H -5.1526562957 1.5186216543 -0.9380625418
H -5.3939394203 0.1146085025 0.1424966518
H -5.1551074465 -0.1376958069 -1.6115194965
C -0.7246104165 0.8636980499 4.9848218887
C 0.0831095621 -0.1974750330 4.5487674713
C 0.2465687673 -0.3900464342 3.1831556073
N -0.3326519583 0.3919812742 2.2508620869
C -1.1067013182 1.4088775449 2.6786616432
C -1.3316771660 1.6833722051 4.0213699575
C -0.9250259128 1.1046863318 6.3828328836
H 0.5700856390 -0.8540689826 5.2610024019
H 0.8660491838 -1.2023155251 2.8158288720
H -1.5631675287 2.0255559833 1.9105400981
H -1.9633405608 2.5136666510 4.3166008062
N -1.0875662985 1.2996267994 7.5169058264
C 0.7175166588 -0.8547279701 -4.9862363086
C -0.0879889789 0.2073225393 -4.5482197011
C -0.2501139680 0.3983813815 -3.1822547608
N 0.3284543206 -0.3858679982 -2.2513991382
C 1.1002295581 -1.4036547928 -2.6811166892
C 1.3237103818 -1.6768480094 -4.0243302690
C 0.9165245921 -1.0942468369 -6.3846955692
H -0.5742832595 0.8657373744 -5.2592308448
H -0.8680210657 1.2111608257 -2.8134541056
H 1.5559931492 -2.0222694167 -1.9141692201
H 1.9535207212 -2.5079822044 -4.3211275194
N 1.0778258009 -1.2883531183 -7.5190890162
