39
# extracted from Terachem optimization
Mn 0.0010570960 -0.0009581747 -0.3009305998
O 0.0002405623 -0.0021848607 2.0736200092
H 0.7601450225 0.1494905766 2.6591493800
H -0.7655211698 -0.1231940397 2.6586687413
C -0.0040312400 2.3368107238 -0.0253048734
N -0.0001371931 3.4815461866 0.1805652658
C 0.0063007348 4.8899790568 0.4305686077
H 0.8430826830 5.3446841132 -0.1051667462
H 0.1157544231 5.0627838698 1.5040060495
H -0.9350091624 5.3203684714 0.0805137578
C 2.3382136998 0.0073344066 -0.0770020825
N 3.4994403885 0.0036284636 -0.0143417509
C 4.9285412609 -0.0049530383 0.0552916496
H 5.3101252878 -0.8314419958 -0.5490740462
H 5.2362672117 -0.1343337336 1.0959388946
H 5.3117848235 0.9433625345 -0.3291844341
C 0.0051525790 -2.3361499877 -0.0246141711
N 0.0008967355 -3.4806964067 0.1819712683
C -0.0058601115 -4.8891876420 0.4319586184
H -0.8428884158 -5.3433763504 -0.1039510129
H -0.1153183611 -5.0622594368 1.5054191925
H 0.9354851881 -5.3195167110 0.0817294782
C -2.3367370839 -0.0076947195 -0.0748818652
N -3.4979876847 -0.0056362231 -0.0136306432
C -4.9273391723 0.0007831456 0.0512988781
H -5.3243956801 -0.6138500219 -0.7602042612
H -5.2849518712 1.0280183941 -0.0524066303
H -5.2453439172 -0.4067559882 1.0141562080
C -0.0008002160 -0.0002462098 -5.3433475715
C -0.0373356583 1.1992924287 -4.6316131744
C -0.0398515384 1.1541186156 -3.2425006406
N -0.0009757927 -0.0003652959 -2.5421744105
C 0.0380132265 -1.1547744730 -3.2426114227
C 0.0367102469 -1.1998027423 -4.6316937899
H -0.0010983886 -0.0003681539 -6.4290079264
H -0.0641775234 2.1566641327 -5.1410237290
H -0.0737505980 2.0659893308 -2.6564068397
H 0.0720274328 -2.0665038897 -2.6563264002
H 0.0645231991 -2.1572462307 -5.1408755205
