30
# extracted from Terachem optimization
Mn -0.0911874796 0.0280551779 0.0701870318
O -0.3771398554 2.2415525618 0.0066388983
H 0.4482710928 2.7336525500 -0.1452430499
H -1.1014158918 2.7814987874 -0.3523824046
O 2.0689355111 0.6619340697 -0.1856087624
H 2.6124246295 0.6214620475 -0.9913045009
H 2.6855746881 0.6010813376 0.5647413581
O 0.2379427377 -2.2137103886 0.0548335858
H 0.9194311009 -2.7413160798 -0.3950877876
H -0.5758354451 -2.7474068180 0.0490059072
O -2.2312438046 -0.5709423007 0.3951301081
H -2.5931263181 -0.5617965001 1.2983114776
H -2.9886068266 -0.4699597681 -0.2066096513
C -0.3845358240 -0.1386018258 -2.2358739315
N -0.5150550249 -0.2397201871 -3.3861688889
C -0.6759018663 -0.3619467795 -4.8053209727
H -1.4315535041 -1.1232127815 -5.0131820852
H 0.2796277011 -0.6553871100 -5.2467697735
H -0.9939139491 0.6012933414 -5.2112075546
C 0.6021231651 0.1843268346 5.0502372106
C 0.1559374524 1.3095488809 4.3547925435
C -0.0298768571 1.2212272771 2.9807462402
N 0.1995819681 0.0847251291 2.2781890101
C 0.6256752143 -1.0029513625 2.9654106575
C 0.8397581351 -0.9927342005 4.3384475506
H 0.7592998290 0.2233378654 6.1239323127
H -0.0452895134 2.2452029946 4.8656242477
H -0.3741715372 2.0746746635 2.4080199670
H 0.7872753403 -1.8984114346 2.3763542721
H 1.1850965200 -1.8926935354 4.8362516641
