18
# extracted from Terachem optimization
Mn -0.0087222009 0.0129704949 0.0571572025
C -0.3910337009 0.3841143485 -2.3787207514
O -0.5655322227 0.5327247990 -3.4786567855
O 0.3210506947 1.8936938376 0.3523615758
H 1.1712372019 2.3510824543 0.1490928527
H -0.3974442125 2.5672649917 0.4050025880
O 1.9365703132 -0.2823849070 -0.3195590196
H 2.4265057050 -0.2296460083 -1.1729279033
H 2.5910797532 -0.4514280561 0.3968449541
O -0.3038766358 -1.8813447381 -0.1912780879
H 0.3772261814 -2.5007346050 -0.5446032663
H -1.1931556642 -2.3001439921 -0.2694779185
O -1.9681813503 0.3154077279 0.3448729463
H -2.3978046423 0.2790152447 1.2305039998
H -2.6679020012 0.4978678291 -0.3237735796
O 0.3049756380 -0.3324977624 2.0969908424
H 0.4854713632 0.3439490432 2.7848140900
H 0.2795358012 -1.1999106605 2.5556823522
