139
# extracted from Terachem optimization
Co 0.1888898375 -0.2622266171 0.2194018544
O 0.4523966630 1.9002955498 0.1419243223
C 1.8489517178 2.2585342834 -0.1086918932
S 2.1644111247 2.3286223343 -1.9033580550
C 1.0756777330 3.8084170312 -2.1957416780
C -0.1939505464 3.6743781463 -1.4003107701
C -0.4679292717 2.8164412116 -0.4143345607
H 1.6451962724 4.6758533263 -1.8362610275
H -1.4172249089 2.7718825957 0.1034098132
H -0.9939005351 4.3640517148 -1.6547080700
H 1.9925680006 3.2575498489 0.3135286796
O 2.2735561707 -0.0844324183 0.3616905127
C 2.7203986581 1.2844158277 0.6715953312
S 4.4686635025 1.5345764089 0.2838518410
C 5.1265350014 0.3023857641 1.5080184313
C 4.2859657702 -0.9447842329 1.4586933343
C 3.0719494061 -1.1079067312 0.9356909846
H 5.0579295470 0.7669515054 2.5006270666
H 2.5441972056 -2.0504765054 0.8876735409
H 4.7360805908 -1.8443019065 1.8701653451
H 2.5378391856 1.4137467363 1.7439360361
C 6.6227409439 0.0545352698 1.1745465362
C 7.5186913707 -0.2629514950 2.3942399067
C 7.0923804272 -1.5158025455 3.1758427036
C 8.9772568576 -0.3857074907 1.9268153895
H 7.0260458670 0.9577678599 0.6992912864
H 6.6950450074 -0.7444485785 0.4257458774
H 7.4536933393 0.5985119382 3.0759144082
H 7.0813506233 -2.4051199158 2.5315583577
H 7.8010542829 -1.7136457691 3.9859447730
H 6.1045555086 -1.4088895551 3.6420551950
H 9.3110215183 0.5153845677 1.4006533424
H 9.6428577344 -0.5369952483 2.7821197267
H 9.1059301502 -1.2402032708 1.2510998725
C 0.8608117131 3.9672029543 -3.7240988956
C 0.5840428057 5.4080269194 -4.2330937463
C -0.7297897701 6.0244212904 -3.7284825100
C 1.7724251361 6.3511350549 -3.9905992861
H 1.7711768444 3.6193767356 -4.2289486659
H 0.0495673850 3.2978445823 -4.0410634910
H 0.4845841374 5.2849298131 -5.3201892826
H -0.6770237334 6.3034538727 -2.6681126981
H -0.9468217622 6.9446870013 -4.2793366342
H -1.5849318162 5.3518059840 -3.8739278326
H 2.7087835765 5.9355740842 -4.3796705347
H 1.6027251792 7.3078111116 -4.4940742264
H 1.9137926177 6.5784408630 -2.9256192301
O 0.1338580498 -2.3648745946 0.7554536576
C -0.5164045095 -2.6451185477 2.0356260791
S -2.3026192775 -2.9040015466 1.7968747711
C -2.1169780114 -4.4722007644 0.8180255840
C -0.9711451423 -4.3402341028 -0.1503184464
C -0.0247081954 -3.4024933791 -0.1901349041
H -1.8949155332 -5.2652195431 1.5441111833
H 0.7609373713 -3.3613999141 -0.9340529511
H -0.9005314076 -5.1102235687 -0.9128307603
H -0.0741553109 -3.5734776615 2.4100016481
O -0.3663634271 -0.2423841020 2.2871334319
C -0.1465648381 -1.5172430310 2.9902690723
S -1.0966034267 -1.6391144164 4.5239639666
C -0.2702453689 -0.2224035863 5.3925169583
C -0.1267051512 0.9253499481 4.4316202437
C -0.1989322967 0.9071118357 3.1012534829
H 0.7191959994 -0.5751786207 5.7134208992
H -0.1353639014 1.7877024435 2.4794364749
H 0.0222533556 1.9079880736 4.8707476598
H 0.9289725483 -1.5502257258 3.1968979768
C -1.1123747369 0.1086906312 6.6534026351
C -0.3075625035 0.6657379051 7.8514690359
C 0.3924898040 2.0036282396 7.5668594285
C -1.2402675405 0.7886284432 9.0666245327
H -1.5999793469 -0.8148632312 6.9908707747
H -1.9200586280 0.7989078619 6.3785203455
H 0.4662349718 -0.0780862561 8.0945446411
H -0.3257412313 2.7692839014 7.2448810323
H 0.8769850296 2.3771637835 8.4743562963
H 1.1777863639 1.9189432974 6.8047318014
H -1.7130829633 -0.1690295735 9.3105420096
H -0.6814178533 1.1173382717 9.9482383267
H -2.0357925587 1.5219522525 8.8856460681
C -3.4814772415 -4.7814846186 0.1465830532
C -3.7797132769 -6.2717237126 -0.1632089587
C -2.8194155802 -6.9222997486 -1.1717023440
C -3.9080173717 -7.1198910151 1.1113812678
H -4.2740562035 -4.4313118127 0.8203010817
H -3.5620337265 -4.1816802658 -0.7702160928
H -4.7715964785 -6.2478128089 -0.6351728973
H -1.8332539074 -7.1230989671 -0.7338083296
H -3.2166348066 -7.8887838227 -1.4964295288
H -2.6875471571 -6.3067822442 -2.0711636320
H -4.6316421514 -6.6909752783 1.8136528087
H -4.2519459603 -8.1280170426 0.8603714114
H -2.9507019987 -7.2364038642 1.6366963179
O -1.8237112089 0.0360692505 -0.5249154818
C -2.0533898087 -0.3157714361 -1.9081181872
S -3.3631181885 0.6795939439 -2.6963472830
C -4.7417337919 0.1169669813 -1.5751305154
C -4.2297018450 0.2701336450 -0.1653645030
C -2.9674720687 0.2331317127 0.2695603001
H -4.9269425778 -0.9342660073 -1.8220640741
H -2.6784935563 0.3576371230 1.3033025279
H -4.9765565629 0.4668671125 0.5985592617
H -2.3355579952 -1.3731302432 -1.9311397456
O 0.2768994590 -0.8000028403 -1.9101712431
C -0.7490663726 -0.0972092737 -2.6662710682
S -0.9273352193 -0.6427872600 -4.4073797880
C -0.0482008447 -2.3073118631 -4.2640549922
C 1.3009610690 -1.9108860186 -3.7337447499
C 1.4288508913 -1.2001868589 -2.6074864984
H -0.6139128318 -2.8802773712 -3.5209458831
H 2.3462509214 -0.8612816334 -2.1447545949
H 2.1896172466 -2.1419631068 -4.3131328772
H -0.4648643850 0.9607511610 -2.6811748607
C -0.0662138341 -3.0058867587 -5.6334429965
C 0.1699750095 -4.5354528145 -5.5583581764
C 1.5112031379 -4.9221331408 -4.9168349031
C 0.0504555898 -5.1348062628 -6.9679945334
H -1.0431584220 -2.8418051555 -6.1032233337
H 0.6799531126 -2.5373800978 -6.2876523462
H -0.6391183517 -4.9553974256 -4.9403767402
H 2.3578744073 -4.5049471707 -5.4767740857
H 1.6300896277 -6.0100378085 -4.9173813174
H 1.5946787844 -4.5916801798 -3.8726049326
H -0.9150931840 -4.9020040702 -7.4301381934
H 0.1465622518 -6.2241084945 -6.9281550621
H 0.8412301294 -4.7567479159 -7.6266618421
C -6.0054482495 0.9563557650 -1.8839433955
C -7.3530527593 0.2457843591 -1.5821105868
C -7.5467811872 -0.1261606531 -0.1041982046
C -7.5907882456 -0.9605171698 -2.5026911596
H -6.0052584775 1.2133984225 -2.9506815125
H -5.9431602858 1.9031396961 -1.3344478744
H -8.1113977238 0.9996696056 -1.8305045135
H -6.8759689386 -0.9376108657 0.2088443511
H -8.5684878090 -0.4803205700 0.0635590023
H -7.3898257139 0.7332504057 0.5593424070
H -7.4935703300 -0.6894374467 -3.5599493458
H -8.6006215090 -1.3559728872 -2.3557933572
H -6.8975432403 -1.7880383649 -2.2962177465
