142
# extracted from Terachem optimization
Co 0.0172148686 -0.0886705343 -0.1180707567
N 0.4578490839 2.0631445866 -0.3765931236
C 1.7554883909 2.2885808167 -0.2542236219
S 2.2153048121 3.9310489936 -0.5150316326
C 0.5455233830 4.3510774344 -0.8063572045
C -0.2193777275 3.2087992592 -0.6858534545
H -1.2925470444 3.1682439044 -0.8172312553
N 2.1662850351 -0.0098793256 0.1313541596
C 2.6653884384 1.1892669306 0.0490176215
O 3.9234645866 1.5397827296 0.2534244533
C 4.9974985750 0.5111887920 0.3668421484
C 4.3703747536 -0.8244839071 0.6549048126
C 3.0557950594 -1.0324868932 0.5217155610
H 5.5657956678 0.8549779325 1.2355110178
H 2.5860625202 -1.9897448557 0.7133962820
H 5.0239804893 -1.6260443068 0.9797516060
C 5.9168177617 0.5804902353 -0.8834705538
C 5.1252192125 0.2476464365 -2.1621368377
C 6.5081424329 1.9999070327 -1.0013071285
C 7.0559169215 -0.4703439049 -0.7279176993
C 7.9385734898 -0.3843462061 0.5256410091
H 4.3206740682 0.9712407088 -2.3414061737
H 5.7897942576 0.2839627513 -3.0313128278
H 4.6924295255 -0.7589924456 -2.1197236991
H 7.0505472241 2.2964028223 -0.0975952008
H 7.2114447308 2.0404949116 -1.8396007337
H 5.7311282333 2.7487925706 -1.1843893052
H 6.6229031816 -1.4773218968 -0.7965202734
H 7.6968755357 -0.3689315212 -1.6127513246
H 7.3857876903 -0.5761072335 1.4535825708
H 8.7308944894 -1.1371112718 0.4678616995
H 8.4260688679 0.5907912105 0.6234734700
C 0.1003547381 5.7837327115 -1.0549114273
C -0.2955076988 6.3997702884 0.3141455604
C 1.2444539484 6.6195295202 -1.6671738508
C -1.1477927979 5.8087346564 -1.9838417657
C -0.9540182895 5.2764185465 -3.4078316778
H 0.5427866335 6.3810983176 1.0188058132
H -0.5962467281 7.4437190701 0.1761172518
H -1.1354357835 5.8595070558 0.7639904059
H 1.6229164379 6.1837728049 -2.5964875005
H 0.8844655940 7.6286378224 -1.8910946126
H 2.0849087487 6.7276684876 -0.9707927337
H -1.9669031735 5.2664165329 -1.4924732437
H -1.4784225722 6.8532634492 -2.0326007493
H -0.6098289617 4.2351602305 -3.4152336584
H -1.9018311307 5.3171739707 -3.9541352356
H -0.2298295157 5.8724496011 -3.9715667477
N -0.3293133121 -2.2409240814 0.3218509891
C -0.5195917320 -2.4239363096 1.6186015363
S -0.9103770900 -4.0476910139 2.0537528971
C -0.8093253586 -4.5203717867 0.3772063832
C -0.4905403507 -3.4058320867 -0.3729841027
H -0.3618144410 -3.4004797355 -1.4476076541
N -0.2167510054 -0.1164531854 2.0397011287
C -0.4083298308 -1.3003765787 2.5424529796
O -0.4685281879 -1.6183011036 3.8246628965
C -0.5257728371 -0.5656952610 4.8762485173
C -0.1154892726 0.7526152435 4.2825620640
C 0.0044460899 0.9267511959 2.9618824678
H 0.2226404568 -0.9025609541 5.5994317782
H 0.2900889824 1.8717615292 2.5155485024
H 0.0913071931 1.5678579389 4.9668334852
C -1.9237081028 -0.6037993516 5.5581648051
C -3.0337840844 -0.2985629396 4.5330687392
C -2.1508824152 -2.0077425879 6.1542799716
C -1.9769761847 0.4780442187 6.6768986269
C -0.8953193834 0.4198862982 7.7643345472
H -3.0946236550 -1.0760961723 3.7621036891
H -4.0061704145 -0.2639831554 5.0351967516
H -2.8767405832 0.6721756256 4.0472862782
H -1.3793909392 -2.2736931759 6.8843600234
H -3.1193427380 -2.0472935037 6.6641507919
H -2.1525980806 -2.7773994025 5.3760976031
H -1.9719060235 1.4729097476 6.2116835603
H -2.9605314449 0.3822982508 7.1528001537
H 0.1124372832 0.6102888393 7.3749538487
H -1.0909563609 1.1838418430 8.5233177097
H -0.8767560017 -0.5469220202 8.2770101852
C -0.9925498370 -5.9578788660 -0.0862982843
C 0.4065166695 -6.5208312636 -0.4507155920
C -1.6042522479 -6.8307509341 1.0282832062
C -1.8885181174 -5.9954789957 -1.3598875486
C -3.3253022901 -5.4882995148 -1.1988755205
H 1.0850373542 -6.4891456281 0.4085309680
H 0.3146872375 -7.5647970730 -0.7687963248
H 0.8634455174 -5.9556760478 -1.2702049448
H -2.5668297387 -6.4448727686 1.3781334400
H -1.7703514342 -7.8449300131 0.6520477588
H -0.9315675645 -6.9142613607 1.8902412354
H -1.3882585948 -5.4333123445 -2.1596001904
H -1.9081205745 -7.0384197774 -1.6990540170
H -3.3546517186 -4.4479388008 -0.8522661353
H -3.8473456585 -5.5327972840 -2.1600715829
H -3.8984434553 -6.0951545715 -0.4911131237
N -2.1567158567 0.1317952680 -0.5227046886
C -2.3980401397 -0.0254594654 -1.8137940005
S -4.0721170550 0.0418588356 -2.2317026679
C -4.4795896954 0.2956387990 -0.5553315170
C -3.3121698627 0.3088885963 0.1820052334
H -3.2616956545 0.4445075987 1.2548027513
N -0.0939066929 -0.3351024544 -2.2721047451
C -1.3000772505 -0.2441287339 -2.7500142234
O -1.6534654936 -0.2869212046 -4.0242717685
C -0.6741492964 -0.6556924220 -5.0865668053
C 0.7185379644 -0.5698075221 -4.5265314184
C 0.9490305235 -0.4333070456 -3.2160415868
H -0.8262597978 0.1265941039 -5.8359845444
H 1.9441570655 -0.3743479259 -2.7919626073
H 1.5442123343 -0.6132270799 -5.2277032631
C -1.0806752862 -2.0189937752 -5.7108425815
C -1.0430448453 -3.1361227802 -4.6514502075
C -2.5056455521 -1.9064266944 -6.2895086239
C -0.0657783497 -2.3817780038 -6.8353129078
C 0.1048819004 -1.3831599754 -7.9893358708
H -1.7678915291 -2.9575418504 -3.8481128124
H -1.3017305773 -4.0944877960 -5.1134542724
H -0.0439034123 -3.2404442238 -4.2110647962
H -2.5908559434 -1.0874715846 -7.0110942183
H -2.7735517552 -2.8339737123 -6.8064280139
H -3.2490734901 -1.7376809270 -5.5042077105
H 0.9138472948 -2.5800714861 -6.3804249407
H -0.3931768351 -3.3423939129 -7.2521745484
H 0.5032166304 -0.4140181621 -7.6642327378
H 0.8108323646 -1.7863350568 -8.7221596334
H -0.8356243436 -1.1960639437 -8.5169949702
C -5.9074472595 0.4790395632 -0.0628454149
C -6.0420965676 1.9132589085 0.5095005828
C -6.9238094588 0.3058252560 -1.2088444584
C -6.1946828265 -0.5418237585 1.0809526121
C -6.1142503948 -2.0243294702 0.7049550362
H -5.8292333358 2.6681877665 -0.2548842009
H -7.0649104287 2.0731515896 0.8663125369
H -5.3625118934 2.0763297251 1.3529678505
H -6.8469521956 -0.6736959780 -1.6916791537
H -7.9409221045 0.3999864465 -0.8160805399
H -6.8002121116 1.0795289399 -1.9757142974
H -5.5075847006 -0.3382944408 1.9132902232
H -7.1992482650 -0.3185244771 1.4617028242
H -5.1226621759 -2.2967839005 0.3220200586
H -6.3094600765 -2.6451342561 1.5853649818
H -6.8551858988 -2.2978633523 -0.0525727979
