118
# extracted from Terachem optimization
Co -0.5742428974 -0.5828251551 -0.4522974301
O -0.5010845844 1.7128441110 -0.5179003163
C 0.5471442717 2.0439641537 -1.4475879798
S 0.9044391131 3.8541657061 -1.2927996398
C -0.2038489895 4.0003846944 0.1796964217
C -0.4067924624 2.5664484938 0.6520067820
H 0.4272507664 2.2458257194 1.2813950082
H -1.3460628370 2.4457082984 1.1895889892
H -1.1453333848 4.4467613306 -0.1498686982
H 0.1479853236 1.8518337016 -2.4495474818
N 1.4940809375 -0.0482191638 -0.7388624208
C 1.7282148580 1.1314277786 -1.1925260754
C 3.1717943722 1.4550914787 -1.4336489415
C 3.8632312554 0.0871121024 -1.2150186933
C 2.7664539625 -0.7825747703 -0.5448439305
H 2.9315527033 -0.8933418162 0.5325914163
H 2.6902665111 -1.7805019146 -0.9848094666
H 4.1392790583 -0.3454734047 -2.1792357241
H 3.3474141868 1.8849828205 -2.4253875558
H 3.5041900518 2.2068574858 -0.7089155360
C 5.1562332586 0.2195959593 -0.3902080946
O 4.7952760039 0.7040317462 0.8715926553
O 5.9720724580 1.1108549626 -1.1268007607
C 5.8933188767 -1.1450035728 -0.3050243426
O 6.2909121737 -1.5948456284 -1.5288435880
Cl 7.3471484103 -0.9022589868 0.8564299134
H 5.5608955023 0.6108155852 1.4696028196
H 6.7623157505 1.3170126832 -0.5940792827
H 5.3014926695 -1.9208797401 0.1798172107
H 6.7024975828 -0.8419337485 -1.9974299495
C 0.4401571977 4.9340954127 1.2399056602
O 0.6141368489 6.1414893164 0.5790901734
O 1.6538941389 4.4049150514 1.7349822208
C -0.4820747177 5.0184922811 2.4983578948
O -0.3618608606 3.8809772662 3.2771219466
Cl -0.0677809550 6.5290389869 3.4506965893
H 0.8249945381 6.8307629983 1.2388234697
H 2.3459847190 4.6066865813 1.0825404295
H -1.5289754949 5.1339929045 2.2184766798
H 0.5907349140 3.7878570211 3.4723052040
O -0.6001995218 -2.7988967414 -0.2333113559
C -1.4489010782 -3.0872507214 0.8925120632
S -1.1186307271 -4.8185170979 1.4475937123
C 0.1753442557 -5.0425945244 0.1468184241
C 0.6004192257 -3.6243705612 -0.2070203127
H 1.2969979607 -3.2408460280 0.5426848143
H 1.0360663855 -3.5501960439 -1.2027980210
H -0.2792973823 -5.5511741817 -0.7072141211
H -2.4767430778 -3.0203660482 0.5202644992
N -0.8618693711 -0.8622174897 1.6498946565
C -1.2691347735 -2.0420538309 1.9699606302
C -1.5766482857 -2.2416859980 3.4260784500
C -1.5565388639 -0.7905242352 3.9563953419
C -0.7540522064 -0.0307400723 2.8769678482
H 0.3066482355 0.0467062652 3.1403105072
H -1.1362998851 0.9710574843 2.6875434910
H -2.5786563041 -0.4040937794 3.9893256567
H -2.5250033392 -2.7619032292 3.5934401711
H -0.7942291734 -2.8598302405 3.8838157758
C -0.9749277451 -0.6735456478 5.3741772385
O 0.3573047601 -1.0940417587 5.3135620875
O -1.7901244072 -1.5058797913 6.1792768627
C -1.1135902980 0.7835930895 5.8988547802
O -2.4171625361 1.1598533685 6.0295255103
Cl -0.1997496061 0.8500789025 7.5372287366
H 0.8037816638 -0.8322804053 6.1411113807
H -1.3854394805 -1.5681302599 7.0640697717
H -0.6002631632 1.5182606038 5.2791252441
H -2.8903638761 0.4204548696 6.4602850487
C 1.3215852535 -5.9361932294 0.7000196314
O 0.6902434554 -7.1099548227 1.0866063936
O 2.0020252409 -5.3052440370 1.7672275387
C 2.4025699887 -6.1361802447 -0.4041387780
O 3.1708853555 -4.9969388440 -0.5659396531
Cl 3.4405208286 -7.5843940806 0.0239960780
H 1.3683794994 -7.7976234149 1.2366784051
H 1.5265653337 -5.5268902724 2.5857575308
H 1.9478529512 -6.3796492801 -1.3643907069
H 3.5719644375 -4.8160077290 0.3056135265
O -2.7665187628 -0.5454600771 -0.7047484883
C -3.1966099026 -0.7519325245 -2.0666266585
S -4.2852411846 0.6488478593 -2.5436358212
C -4.8642079580 0.7029691287 -0.7948128063
C -3.6054060144 0.4131876069 0.0200014291
H -3.0234637594 1.3258323223 0.1315212796
H -3.8323278457 -0.0265316235 0.9912535828
H -5.6246348706 -0.0726130574 -0.6602517771
H -3.7768622132 -1.6840564643 -2.0973407465
N -0.8184739335 -0.8335695464 -2.5456610445
C -2.0217522549 -0.8763399013 -2.9872348680
C -2.1614429435 -1.1124110177 -4.4626815223
C -0.6971187085 -1.0060396622 -4.9627604611
C 0.1355453387 -1.0575007817 -3.6550468848
H 0.9179505124 -0.2984673896 -3.6095695562
H 0.6080506397 -2.0349381239 -3.5051702842
H -0.4472467255 -1.8411699692 -5.6181151362
H -2.5976287827 -2.1031900959 -4.6463304613
H -2.8219841537 -0.3859828839 -4.9449498649
C -0.4718168066 0.2936313298 -5.7701253178
O -0.5491322382 1.3693381127 -4.8661365343
O -1.4851462594 0.3151394048 -6.7506222485
C 0.8996443809 0.2578339312 -6.4998566628
O 0.9779703455 -0.7384897572 -7.4228996984
Cl 1.1243213751 1.9566134401 -7.2812940387
H -0.2671026115 2.1777916091 -5.3353069948
H -1.4168401743 1.1479710203 -7.2538520960
H 1.7483796437 0.1720238558 -5.8225152516
H 0.1490112671 -0.7396187067 -7.9406344359
C -5.5089477871 2.0871129064 -0.4907743232
O -6.4225601181 2.2906320268 -1.5139419889
O -4.5293763520 3.1122759419 -0.4367657162
C -6.1540055286 2.0576538805 0.9258892731
O -5.1929263734 2.0658599713 1.9190974935
Cl -7.2983596622 3.4810129623 1.0843805978
H -7.0303312266 3.0105420018 -1.2526455400
H -4.4568431368 3.4835751620 -1.3322150933
H -6.7730037080 1.1705225045 1.0586335987
H -4.6848255746 2.8910037723 1.8098703240
