109
# extracted from Terachem optimization
Co -0.2641936743 -0.3772328935 -0.3308848181
N 0.0200981408 1.5605956942 -0.6011926870
C 1.3117659326 1.8649598847 -0.7757721043
S 1.6077677038 3.5196164262 -1.0980129789
C -0.0995470285 3.8204512427 -0.9796218678
C -0.7852747666 2.6585428173 -0.7069743674
H -1.8552382086 2.5917867471 -0.5804955625
N 1.6777256418 -0.4193392684 -0.5384057261
C 2.2413445690 0.7496070056 -0.6857419616
S 3.9694769321 0.8498828994 -0.6938604882
C 4.0298699828 -1.0167351972 -0.7740617750
C 2.6371078787 -1.5103885890 -0.3083822365
H 2.6451365923 -1.7601663258 0.7588313442
H 2.3469141673 -2.4035421432 -0.8625955069
H 4.1953341583 -1.2877744337 -1.8218159506
C 5.2488257978 -1.4968381842 0.0315785999
O 6.0636122317 -0.7005919627 0.4358214476
C 5.3429616919 -3.0110407048 0.3182589173
O 4.5417352163 -3.2059383424 1.4895981005
O 4.6832690788 -3.6327869088 -0.7519316244
C 6.7743619311 -3.4854307896 0.5111441144
H 5.1206313463 -3.2044257511 2.2712695456
H 4.7810978939 -4.5959346639 -0.6537818468
H 7.3381028157 -3.3798771102 -0.4192085581
H 7.2829207768 -2.8997447405 1.2819485897
H 6.7719871563 -4.5409663563 0.8058134464
C -0.5507852357 5.2290726694 -1.2200689634
O 0.2840702998 6.0494103187 -1.5366917126
C -2.0645332491 5.5157966638 -1.1323709238
O -2.6551769861 4.7009205488 -2.1426782227
O -2.4467683564 5.0047516375 0.1206706058
C -2.3787589140 6.9924417531 -1.3082256845
H -2.9544122799 5.2611127198 -2.8784041008
H -3.3537938018 5.3036719953 0.3086082454
H -1.9243470761 7.5778176186 -0.5057734544
H -1.9900770869 7.3695921535 -2.2582567636
H -3.4649318177 7.1384646251 -1.2838020325
N -0.4410201884 -2.3019436765 0.0237686424
C -0.2890104476 -2.6142899800 1.3156777129
S -0.4576664482 -4.2827798824 1.6593781928
C -0.7445851031 -4.5743975503 -0.0301231566
C -0.7004148305 -3.3985482329 -0.7444609867
H -0.8508215617 -3.3198274402 -1.8097057364
N -0.0486295265 -0.3207748569 1.6207691157
C -0.0371694809 -1.4905194128 2.2044169442
S 0.3091214381 -1.5718922133 3.8997005357
C 0.0916484453 0.2820209279 3.9675763398
C 0.3249465473 0.7827161544 2.5235406679
H 1.3759856661 1.0461662430 2.3548459061
H -0.2827060165 1.6662297104 2.3261153856
H -0.9459739247 0.4711011110 4.2628562181
C 0.9985444764 0.8364824335 5.0757417145
O 1.5725398796 0.0819463009 5.8252143499
C 1.1406602972 2.3724845775 5.1486092668
O 2.1411739950 2.6954998951 4.1777493646
O -0.0806964044 2.8708354813 4.6697968998
C 1.5012754022 2.8664600223 6.5396667562
H 3.0011252611 2.7761478582 4.6250462001
H -0.0666822298 3.8405372093 4.7505399980
H 0.6887595373 2.6589805653 7.2405410929
H 2.4019091044 2.3701906396 6.9118538710
H 1.6749820539 3.9479589682 6.5084262241
C -1.0012114042 -5.9901649748 -0.4498496229
O -1.0086877509 -6.8511764712 0.4036008222
C -1.3113232319 -6.2358368233 -1.9426739118
O -2.4865552560 -5.4741980614 -2.2016439155
O -0.2350275717 -5.6354576249 -2.6266997390
C -1.4781915782 -7.7127038317 -2.2578194429
H -3.2325363075 -6.0740119631 -2.3693737698
H -0.2349423478 -5.9647698257 -3.5424693824
H -0.5520592127 -8.2543797479 -2.0528998525
H -2.2689887139 -8.1607220102 -1.6497274711
H -1.7334526809 -7.8331504818 -3.3174117697
N -2.2191825476 -0.1836017689 -0.3099574579
C -2.7631124850 -0.2680247557 -1.5283038847
S -4.4728763201 -0.1760065080 -1.5388777643
C -4.4478088101 0.0006670336 0.1919715264
C -3.1561738643 -0.0294470195 0.6680337029
H -2.8795721834 0.0552523168 1.7080492152
N -0.5782259711 -0.6028865108 -2.2663908680
C -1.8243474650 -0.4424724142 -2.6270963292
S -2.2131530822 -0.3796251633 -4.3107839920
C -0.4633875802 -0.9131451253 -4.6846162176
C 0.3572464037 -0.6157911173 -3.4034465757
H 0.8529902559 0.3592343055 -3.4687363708
H 1.1274109867 -1.3757403281 -3.2675574127
H -0.4870444914 -1.9910615260 -4.8746313143
C -0.0136304588 -0.2199929412 -5.9813026914
O -0.8058405312 0.4097364776 -6.6418436361
C 1.4795063107 -0.3414481878 -6.3555767259
O 2.1190400651 0.7121541073 -5.6256031062
O 1.9038944439 -1.5585453349 -5.8022110577
C 1.7183757804 -0.2339149711 -7.8528922472
H 2.2418123639 1.4742953780 -6.2170568252
H 2.8117144309 -1.7342991954 -6.1049637938
H 1.2698247155 -1.0844319116 -8.3725981870
H 1.2725773919 0.6796087266 -8.2558008318
H 2.7962106391 -0.2259375453 -8.0513795530
C -5.7709314459 0.1176916591 0.8846041598
O -6.7795507406 -0.0058127333 0.2234798757
C -5.7585766850 0.3216358233 2.4150751215
O -5.1013131520 -0.8231354201 2.9534737576
O -4.9227581610 1.4359588653 2.6122996388
C -7.1596413212 0.5088250733 2.9753297159
H -5.7547648754 -1.4004574195 3.3827790278
H -5.0368239859 1.7428602417 3.5288553690
H -7.6210073376 1.4083948504 2.5618997880
H -7.8028297068 -0.3399440604 2.7267625844
H -7.1035430860 0.6059364709 4.0658224948
