91
# extracted from Terachem optimization
Co -0.2206421318 -0.1002770471 -0.0614591199
O -0.0311528265 2.0950940290 0.0214414581
C 1.3272880857 2.6037277008 0.0120595621
N 1.5491018192 2.9759607291 1.3961180150
C 0.2634900450 3.3832535881 1.8627364638
C -0.6622837186 2.8229910330 1.0825351751
H -1.7387852194 2.7823973147 1.1172094355
H 2.3077473166 3.6344019153 1.5530865648
H 1.3591661532 3.4635497658 -0.6797248587
O 1.9401451271 0.2013479215 -0.0040445248
C 2.2802934237 1.5071925450 -0.5444845607
N 3.6398155351 1.6768270445 -0.0998205289
C 3.9753008143 0.7298385167 0.8239354999
C 2.9365270769 -0.1649564536 0.9098852174
H 2.8247953605 -1.1357184088 1.3690302005
H 4.2517433714 2.4244223196 -0.4076570977
H 2.1860114969 1.4525255510 -1.6332660783
C 5.2761652494 0.7878924775 1.5688275219
C 5.6334467591 -0.4626288817 2.3569927310
Cl 5.1552663794 2.2522737902 2.6705455404
H 6.0750791959 1.0360806361 0.8637935668
H 6.5740410821 -0.2977452634 2.8867786362
H 4.8660506884 -0.7162391789 3.0935328747
H 5.7720855310 -1.3076201605 1.6743490408
C 0.0623275624 4.2714801576 3.0486147032
C 0.7205287109 5.6455042535 2.9304215659
Cl 0.7024111646 3.4036645994 4.5338892513
H -1.0100020215 4.3792115665 3.2214045484
H 0.3164369969 6.1758223258 2.0608134575
H 0.5026328901 6.2365736615 3.8228346677
H 1.8087704936 5.5750311838 2.8352204077
O -0.2176228989 -2.2835261917 0.1753313675
C -0.0019554239 -2.7506362791 1.5296933288
N 1.4246042652 -3.0240864303 1.5526715768
C 1.6746270736 -3.5256879754 0.2347323946
C 0.7188567836 -3.0734923171 -0.5802527611
H 0.5483383844 -3.1400833059 -1.6426543315
H 1.7273805885 -3.6263505997 2.3147624849
H -0.6070499319 -3.6653309699 1.6612870452
O -0.0690149531 -0.3642493836 2.1588101527
C -0.5012787032 -1.6966261430 2.5432841309
N 0.1046546027 -1.8809043385 3.8372513274
C 0.9766614157 -0.8566183704 4.1081496141
C 0.9098893760 0.0439538689 3.0802411628
H 1.3239263571 1.0312880856 2.9482734083
H -0.2553323551 -2.5195925830 4.5378007829
H -1.5962152389 -1.6986893962 2.5789367640
C 1.8377673475 -0.8854675149 5.3366717617
C 2.5107830016 0.4262559788 5.7091712879
Cl 3.0854215638 -2.2036666968 5.0461847707
H 1.2415336374 -1.2539564346 6.1765291103
H 3.1502079027 0.2679028588 6.5802556262
H 3.1294640568 0.8199268094 4.8976749599
H 1.7511302463 1.1668734744 5.9778997322
C 2.8608220213 -4.3646196621 -0.1161292321
C 3.0714511100 -5.5882453253 0.7702619674
Cl 4.3579372129 -3.2889170982 -0.0589318784
H 2.7757586351 -4.6602245779 -1.1630292554
H 2.1972409351 -6.2464364356 0.7061926945
H 3.9440330603 -6.1495479988 0.4285772391
H 3.2419604730 -5.3156021143 1.8167814515
O -2.2761827972 0.0222082491 -0.2625109860
C -2.6410701986 0.8795187494 -1.4062843328
N -4.0354996357 0.6175162901 -1.6605706131
C -4.4441838051 -0.4106282033 -0.7755386646
C -3.4209429294 -0.7798370390 0.0014856052
H -3.3036499692 -1.5441379618 0.7494329544
H -4.6531930077 1.4284300784 -1.6532484922
H -2.4390587890 1.9200177679 -1.1376154261
O -0.3811020502 0.3080878941 -2.1456752726
C -1.7587522907 0.4792372581 -2.6024358045
N -2.0781830639 -0.8103980898 -3.1830390500
C -0.8523851156 -1.3633740667 -3.6060638493
C 0.1511712805 -0.7272832573 -2.9885236814
H 1.2198623215 -0.8556599253 -2.9777641551
H -2.8464093032 -0.8016633108 -3.8472413619
H -1.7685481858 1.2977121284 -3.3407734340
C -0.8255484580 -2.5046302040 -4.5831506190
C -1.0809106676 -2.0706151794 -6.0298251443
Cl 0.7791767569 -3.3567005236 -4.4593783596
H -1.5711638665 -3.2441010776 -4.2749680929
H -1.0799459290 -2.9446508278 -6.6851496499
H -0.3138434763 -1.3709751490 -6.3710213844
H -2.0629368489 -1.5895011248 -6.1139789558
C -5.8600411079 -0.8967664481 -0.7961126729
C -6.1664725731 -2.0202470748 0.1841473499
Cl -6.9181124224 0.5615957312 -0.4513550357
H -6.1203321786 -1.1868361632 -1.8176231085
H -5.5689429436 -2.9059902470 -0.0625828045
H -7.2205019789 -2.2957260438 0.1111704484
H -5.9672869020 -1.7162488049 1.2160086904
