91
# extracted from Terachem optimization
Co -0.1727926448 -0.1360824466 0.2730621443
O 0.0310405616 1.9406674076 0.3642561277
C 1.3988609274 2.4193521457 0.1432082979
N 1.8594606137 2.6606586623 1.4922333810
C 0.7160050157 3.0910943125 2.1900255042
C -0.3695164636 2.6338849676 1.5496345791
H -1.4222545585 2.6267197369 1.7772596022
H 2.7401752308 3.1543275789 1.5972448899
H 1.2997514992 3.3544908236 -0.4357827047
O 1.9592344274 0.0558644650 -0.2275879032
C 2.2350600403 1.4256409300 -0.6770381133
N 3.6395985531 1.6654092065 -0.4328480251
C 4.0828474458 0.5691669819 0.3863072295
C 3.1079116230 -0.3325796047 0.5033944162
H 3.0287173477 -1.2760212628 1.0191264164
H 4.1900912346 1.7663731110 -1.2841675575
H 1.9649981275 1.4997608524 -1.7313317584
C 5.4302323054 0.6150683131 1.0220218255
C 5.9385721182 -0.7167161143 1.5559614365
Cl 5.3615639557 1.8625368845 2.3900929645
H 6.1531943835 1.0473634418 0.3250672550
H 6.9139040702 -0.5816445190 2.0279540635
H 5.2571742797 -1.1456966878 2.2964777447
H 6.0512086588 -1.4235212658 0.7263976517
C 0.7558101874 3.9384697648 3.4221881780
C 1.3777633653 5.3177451277 3.2034691447
Cl 1.6779069754 3.0520408934 4.7349292729
H -0.2613469579 4.0392828352 3.8053619808
H 0.8061854836 5.8617176104 2.4430682047
H 1.3483495888 5.8900181806 4.1336007363
H 2.4214412117 5.2489045142 2.8823223586
O -0.5716395403 -2.1581199016 0.3575575764
C -0.3676109245 -2.6960584437 1.7027740482
N 0.9981764304 -3.1665913208 1.6354184361
C 1.1179001450 -3.6639288877 0.3219375791
C 0.1970835061 -3.0673729828 -0.4488034785
H -0.0235284529 -3.0907427483 -1.5013450912
H 1.3258433106 -3.7301547045 2.4147546624
H -1.0910240053 -3.5226154750 1.8137774812
O -0.0531290553 -0.3582764746 2.3459627001
C -0.6664968106 -1.6328809454 2.7581208065
N -0.0556361914 -2.0035944768 4.0084494153
C 1.1046179442 -1.1607024876 4.1303997632
C 1.1046536452 -0.2382847209 3.1682694745
H 1.7748280408 0.5640474393 2.9065275790
H -0.6811399643 -1.9261336594 4.8092994053
H -1.7437039877 -1.4699342617 2.8356046728
C 2.1247784405 -1.4765325663 5.1721472575
C 3.0976619500 -0.3573520946 5.5091294323
Cl 3.0600289116 -2.9688474151 4.5908444565
H 1.6242058283 -1.8329720177 6.0761241431
H 3.8250613641 -0.7090648964 6.2436910050
H 3.6423299517 -0.0056674007 4.6281698837
H 2.5484784487 0.4844173524 5.9439004646
C 2.1283825617 -4.6838144677 -0.0948611964
C 2.0512731708 -5.9997282916 0.6763826682
Cl 3.8047413483 -3.9565570471 0.0934941362
H 2.0167195157 -4.8626965554 -1.1656180179
H 1.0606826719 -6.4481508241 0.5395932517
H 2.8011468826 -6.6974358552 0.2967133250
H 2.2340000178 -5.8582098991 1.7459139710
O -2.3144175607 0.4066379066 0.1314403819
C -2.5567424661 1.2165747738 -1.0602292641
N -3.9677349270 1.0920581505 -1.3683002211
C -4.4684712661 0.0712453386 -0.4983920708
C -3.5011489230 -0.3356743422 0.3231331069
H -3.4663699136 -1.0978102759 1.0828299214
H -4.4970699784 1.9591438925 -1.2808857299
H -2.2529576714 2.2425667300 -0.8436636098
O -0.3726870149 0.3049003263 -1.7928553433
C -1.7132492967 0.6771803382 -2.2273399627
N -2.2058455979 -0.5458863164 -2.8346367504
C -1.0609608175 -1.1880393379 -3.3462164068
C 0.0228345912 -0.6997336906 -2.7267609663
H 1.0626323003 -0.9762015102 -2.7199860329
H -3.0028615887 -0.4181886364 -3.4496413713
H -1.5905796308 1.4856275814 -2.9691544412
C -1.1920555591 -2.2672331261 -4.3816658300
C -1.4348425227 -1.7301136755 -5.7946390374
Cl 0.2986810109 -3.3153054469 -4.3644411032
H -2.0116462691 -2.9292134818 -4.0853918193
H -1.5512334957 -2.5596675799 -6.4957299040
H -0.6021921861 -1.1023959579 -6.1219130887
H -2.3561213513 -1.1351383706 -5.8193902837
C -5.8965981801 -0.3489030151 -0.5878809253
C -6.2932273905 -1.4737199228 0.3572875179
Cl -6.9240607986 1.1450062829 -0.2539304528
H -6.1359347187 -0.6031322142 -1.6235480027
H -5.7222767697 -2.3787793879 0.1178360086
H -7.3549023542 -1.7012459355 0.2426618532
H -6.1152439644 -1.1967704031 1.4004578941
