169
# extracted from Terachem optimization
Co 0.6223713279 -0.5688295082 -0.0498757217
O 0.6729273672 1.6404180217 -0.0270542852
C 1.8210877205 2.4998320800 -0.2713549227
N 1.3670690447 3.3404517350 -1.3740418582
C -0.0385742247 3.4728690443 -1.1635655530
C -0.4456140426 2.4585622025 -0.3838497770
H -1.4136512534 2.0925332389 -0.0849122047
H 1.8631201651 4.2262172767 -1.4331121718
H 2.6787511001 1.8782281227 -0.5216807825
H 2.0085423853 3.0718342087 0.6532639308
C -0.8483023543 4.4784978160 -1.8511163284
C -0.3876680141 5.1001693315 -3.0221588582
C -1.2180079172 5.9595677501 -3.7408756145
C -2.5194373223 6.2282194927 -3.3020282078
C -3.4943350029 7.0704030463 -4.1444815901
N -2.7301125652 7.9363396635 -5.0418683622
O -4.2891885071 6.2325672357 -4.9701271323
N -4.4708973657 7.7032040272 -3.2647119935
C -2.9633047503 5.6399230555 -2.1086871404
C -2.1416863474 4.7822126621 -1.3905738339
H 0.6063300754 4.8805594739 -3.4022363843
H -0.8678701240 6.4091436193 -4.6637773892
H -3.3815296187 8.4711239840 -5.6150275127
H -2.1629155561 8.5996417561 -4.5153491401
H -3.7323088900 5.8403595938 -5.6777264322
H -4.0381714738 8.4747000601 -2.7605412178
H -5.2200493179 8.0865751798 -3.8396081808
H -3.9644174710 5.8692626086 -1.7624019634
H -2.5003075517 4.3433715032 -0.4636914070
O 2.7532802266 -0.6608279860 -0.0494191908
C 3.6542606351 -0.5458374241 -1.1825713191
N 4.7179078329 0.3029811840 -0.6635007699
C 4.7730414934 0.0153566385 0.7296243782
C 3.6022952835 -0.5344650211 1.0946552128
H 3.1370602339 -0.7525527975 2.0392130528
H 5.6038823343 0.1917361965 -1.1493347417
H 3.1033135625 -0.1057595105 -2.0127673201
H 3.9988969721 -1.5627113963 -1.4395615082
C 5.9316484112 0.3675218021 1.5499867766
C 6.8312490142 1.3620756693 1.1344648633
C 7.9245858642 1.7013471906 1.9301684904
C 8.1496824046 1.0554767054 3.1519175139
C 9.3035533816 1.4724376876 4.0837548101
N 10.3419411521 2.1363395518 3.2925900950
O 8.8421385163 2.4245224771 5.0299321563
N 9.6968798352 0.3379615812 4.9069885400
C 7.2491974827 0.0626245196 3.5664789530
C 6.1603838222 -0.2821410567 2.7765409457
H 6.6643361280 1.8938919767 0.2016040876
H 8.6091434334 2.4788897672 1.6085543421
H 11.1021329636 2.4070735445 3.9160726113
H 10.7312305198 1.5080797703 2.5905763565
H 8.7736586079 3.2663408264 4.5492104956
H 10.2491462381 -0.3235198058 4.3651052285
H 10.2714667491 0.6799323746 5.6755075924
H 7.4334223358 -0.4390472899 4.5097231568
H 5.4956359481 -1.0805033364 3.0962636129
O 0.5373070276 -2.7290591373 -0.0198562099
C 1.5733091938 -3.6433623653 0.4292395227
N 0.8637432569 -4.5228989159 1.3475645144
C -0.4759233454 -4.5606133612 0.8640902747
C -0.6732809821 -3.4867290193 0.0819049634
H -1.5491103522 -3.0158021688 -0.3265792585
H 1.2958490317 -5.4372600642 1.4518165459
H 2.3645964118 -3.0651128938 0.9066375088
H 1.9603530562 -4.1695225007 -0.4601640691
C -1.4202616774 -5.5908699025 1.2942942549
C -1.1976573943 -6.3138724574 2.4768388422
C -2.1112644414 -7.2787302937 2.8974577913
C -3.2596174964 -7.5526040244 2.1450952605
C -4.3212187006 -8.5589339106 2.6283001415
N -3.7155303673 -9.4624132440 3.6089710214
O -5.3719496571 -7.8769626836 3.2933285305
N -4.9808581757 -9.1540599301 1.4742003771
C -3.4809049967 -6.8299614621 0.9625377534
C -2.5744237477 -5.8673447592 0.5386731422
H -0.3245152340 -6.1025411388 3.0880326630
H -1.9432515332 -7.8205029763 3.8217666726
H -4.4272308641 -10.1212861958 3.9234952316
H -2.9601680767 -10.0051152391 3.1918275762
H -5.0161870923 -7.6106680915 4.1577946101
H -4.3777496403 -9.8461907319 1.0345918527
H -5.8279346094 -9.6229445199 1.7910837815
H -4.3679542159 -7.0535990526 0.3808018113
H -2.7444916742 -5.3422618700 -0.3976045544
O -1.5481471220 -0.5624804021 -0.0604297827
C -2.4409551540 -0.2567830685 1.0510210521
N -3.2983555838 0.7863568354 0.4958035770
C -3.3744319787 0.4962499373 -0.8957745390
C -2.3306522919 -0.2844302967 -1.2229617473
H -1.9197307875 -0.6154012532 -2.1619086771
H -4.2002875798 0.8553924063 0.9600775094
H -1.8459625111 0.0806439960 1.8975659213
H -2.9893050871 -1.1805070701 1.2963317636
C -4.3551585919 1.1272614716 -1.7782001091
C -5.0060677836 2.3116786653 -1.3988762742
C -5.8358549635 2.9819039972 -2.2966866536
C -6.0453489485 2.4806591316 -3.5865882292
C -6.8441732936 3.2747252664 -4.6368462507
N -7.7482477593 4.1997583706 -3.9546761547
O -5.9718142486 4.0697912701 -5.4249875128
N -7.4248247704 2.3492076492 -5.6031783786
C -5.4313804761 1.2729301684 -3.9481790478
C -4.6021557995 0.6027249785 -3.0590152868
H -4.8296374851 2.7411427797 -0.4164738037
H -6.3062902619 3.9159211689 -2.0088403863
H -8.2512425054 4.7409700958 -4.6566804759
H -8.4381145640 3.6952321597 -3.3991917032
H -5.6126455079 4.8054275087 -4.8829004160
H -8.2094204998 1.8531611276 -5.1847895907
H -7.7797134806 2.8866077356 -6.3930495704
H -5.6152990546 0.8759601581 -4.9400039170
H -4.1416648130 -0.3355831188 -3.3558029269
O 0.6533844918 -0.5233551640 2.1382030252
C 0.6581436993 0.6577278308 2.9864800916
N -0.4368217001 0.3986546600 3.9135810788
C -0.4813025989 -1.0206637406 4.0393175865
C 0.1397959102 -1.5596858944 2.9775740165
H 0.2466890679 -2.5648316881 2.6060729743
H -0.3420723913 0.8911078027 4.7978787182
H 0.4932924308 1.5210366902 2.3452135150
H 1.6420089851 0.7138265442 3.4831150310
C -1.1941119539 -1.6856004727 5.1300042074
C -2.1385296309 -0.9935835100 5.9043873287
C -2.8374355804 -1.6473239983 6.9187671191
C -2.6108744597 -3.0025951117 7.1869533353
C -3.4411226402 -3.7649413062 8.2372172731
N -3.9431795521 -2.8131818351 9.2305536642
O -4.5780333688 -4.3538564897 7.6236932166
N -2.6831545159 -4.9109356523 8.7210328865
C -1.6636954776 -3.6917498547 6.4148249898
C -0.9606883196 -3.0447079134 5.4078812187
H -2.3542521732 0.0516537289 5.6994355783
H -3.5728181162 -1.1054639065 7.5040506314
H -4.4693008164 -3.3247727656 9.9386523701
H -3.1780763016 -2.3335943381 9.7030911531
H -5.2115534705 -3.6282960656 7.4942668241
H -1.9632420722 -4.6102302950 9.3747901972
H -3.3204347977 -5.5340204395 9.2145672412
H -1.4872803270 -4.7393906074 6.6302654837
H -0.2115651105 -3.5910627085 4.8409638990
O 0.6901867559 -0.6048295146 -2.2559550179
C 0.4100753464 -1.7477637819 -3.1053722880
N -0.6110252763 -1.2383226117 -4.0118229101
C -0.3033714504 0.1498945623 -4.1520026048
C 0.4523070397 0.5227261914 -3.1071716545
H 0.7831252877 1.4760246160 -2.7286346227
H -0.6575110713 -1.7446495507 -4.8923987991
H 0.0680509829 -2.5678969640 -2.4753443723
H 1.3479555351 -2.0163944178 -3.6221585106
C -0.8996415971 0.9818702022 -5.1974779971
C -2.0679422108 0.5753585591 -5.8605195064
C -2.7066662507 1.4301736760 -6.7576962113
C -2.1905985568 2.7040457590 -7.0218978364
C -2.9580286471 3.7091186524 -7.8994279305
N -3.8321504279 2.9771484175 -8.8148349428
O -3.8026920391 4.5202003746 -7.0953216085
N -2.0221206415 4.6665608867 -8.4783917657
C -0.9980707174 3.0910447904 -6.3942231779
C -0.3583804883 2.2434674326 -5.4992783782
H -2.5104912036 -0.3930670060 -5.6440014931
H -3.6279130042 1.1216818587 -7.2402032675
H -4.3553863041 3.6489796239 -9.3749119850
H -3.2906322165 2.3949731394 -9.4525564481
H -4.5359189527 3.9765910759 -6.7338526128
H -1.5045065028 4.2323467117 -9.2400919605
H -2.5557293377 5.4433235143 -8.8665241095
H -0.5885163305 4.0692263632 -6.6192995582
H 0.5696962021 2.5589899678 -5.0304492392
