118
# extracted from Terachem optimization
Co 0.2142175838 0.0947944112 0.1551351468
O 0.3979600993 2.1710761898 0.5749189653
C 1.7435797346 2.6980081916 0.6233002186
C 1.8338059861 3.7725744501 1.7205332549
C 0.8218774161 4.9276297923 1.4862413018
C -0.5763238418 4.3099491822 1.2591823154
C -0.5728939061 3.2050840257 0.2139512635
H 0.7804205277 5.5118305851 2.4123192173
H 2.8534746062 4.1593512080 1.7846452948
H 1.6191794090 3.2972297072 2.6849857589
H 1.9591399984 3.1507644626 -0.3572079876
H -1.5298361299 2.6843997734 0.1613892670
H -0.3186456585 3.5715120348 -0.7886101820
H -1.2964413272 5.0773359173 0.9592532441
H -0.9379635392 3.8956652180 2.2083951060
N 2.2766824975 0.3228147463 0.5465925277
C 2.7076715211 1.5183371032 0.7680660673
S 4.3431537974 1.9984615769 1.2037530894
C 5.3648916894 0.4468819727 0.9501445219
C 4.5852391543 -0.5663590704 0.1144613974
C 3.1835468587 -0.8303047477 0.6628573684
H 5.5461510134 0.0536022271 1.9557695889
H 4.5267780412 -0.2314763804 -0.9291674797
H 5.1438563618 -1.5068646701 0.1157423961
H 3.2357191547 -1.1127181380 1.7241969985
H 2.7079473531 -1.6630681762 0.1406972425
C 6.7181064255 0.8957265745 0.3478353854
C 7.5071854067 1.8651340359 1.2238694167
Cl 7.7122928949 -0.6082495463 0.0917157603
H 6.5592481828 1.3132055604 -0.6505150659
H 7.6938731901 1.4438480441 2.2161924041
H 8.4698944614 2.0910761926 0.7596596453
H 6.9676989226 2.8141803685 1.3349472235
C 1.2885275244 5.9052603865 0.3792534269
C 2.6168182060 6.6073544737 0.6703041831
Cl 0.0200436199 7.2023562702 0.1412038447
H 1.3410935031 5.4140861511 -0.5988196380
H 2.8270972660 7.3609562543 -0.0920161121
H 2.5940407111 7.1038793730 1.6451517981
H 3.4452159782 5.8898453990 0.6593013692
O 0.1552814913 -2.1309339231 0.0992326561
C -0.3792923314 -2.8210183592 1.2467372870
C 0.3795593983 -4.1423866668 1.4837266846
C 0.3712340975 -5.0674481282 0.2370298052
C 0.8230531255 -4.2319340147 -0.9785272909
C 0.0394650927 -2.9376386826 -1.1142356618
H 1.1259399272 -5.8445945236 0.4024649988
H -0.0495615710 -4.6589858257 2.3462560790
H 1.4169350915 -3.9014960095 1.7444725558
H -1.4415196196 -3.0338140439 1.0486311533
H 0.4311923439 -2.3032383626 -1.9099220163
H -1.0267227906 -3.1161638423 -1.3059605281
H 0.7278815451 -4.8047964525 -1.9048557219
H 1.8871861666 -3.9907645102 -0.8637847076
N -0.1465427469 -0.5902043014 2.1994233460
C -0.3387355413 -1.8453036410 2.4243528302
S -0.5868203556 -2.6311891504 3.9834950763
C -0.8367336280 -1.2191358515 5.1845327417
C -1.1530139018 0.0627963888 4.4188300800
C -0.1273124267 0.3609809528 3.3254234707
H 0.1131924789 -1.1185418424 5.7200469582
H -2.1616510910 0.0115015466 3.9884801067
H -1.1525547275 0.8931049983 5.1308253293
H 0.8882631611 0.3649062816 3.7472002251
H -0.2986320086 1.3521861602 2.9049271334
C -1.9180874022 -1.6749753338 6.1955607923
C -1.5478199837 -2.9281464434 6.9848174352
Cl -2.1726797486 -0.2991464784 7.3603455546
H -2.8755716179 -1.8038449489 5.6830090285
H -0.5955527064 -2.8019532292 7.5085166227
H -2.3207280252 -3.1478330766 7.7248771997
H -1.4761735174 -3.7970266695 6.3184746287
C -0.9891571515 -5.7989916977 0.0914393277
C -1.2049865119 -6.8969971917 1.1366432613
Cl -1.1386111972 -6.5781893485 -1.5577408114
H -1.8270806998 -5.0949911289 0.1215998412
H -2.1642732001 -7.3949635006 0.9795030809
H -0.4120935817 -7.6481371872 1.0796685547
H -1.2121431777 -6.4728736176 2.1473709658
O -1.9128325659 0.1226975136 -0.4763471823
C -2.2329202540 0.1481227636 -1.8790269798
C -3.3631435473 1.1589747927 -2.1624703489
C -4.6343774659 0.8946883896 -1.3129321447
C -4.2032153309 0.7482702750 0.1621646911
C -3.0670906119 -0.2476542838 0.3364908991
H -5.2630524999 1.7889389312 -1.3921479453
H -3.6021160085 1.1532905653 -3.2283859693
H -2.9894889796 2.1641938855 -1.9334846450
H -2.5597940890 -0.8636876380 -2.1669792469
H -2.6892219532 -0.2614131556 1.3587470376
H -3.3623850277 -1.2682986243 0.0588847825
H -5.0467211706 0.4410563548 0.7874579543
H -3.8749305542 1.7268304377 0.5340610123
N 0.1890350991 0.4193497332 -2.0061314733
C -0.9357633114 0.4191472410 -2.6409082091
S -1.2064759961 0.6789486144 -4.3617163148
C 0.5018342125 0.6194646571 -5.1231486507
C 1.4872873384 0.0033798978 -4.1330674555
C 1.4359884927 0.6664315238 -2.7559493275
H 0.7674965927 1.6612709673 -5.3303070410
H 1.3061170839 -1.0752112870 -4.0404217170
H 2.4957540646 0.1224205466 -4.5396421688
H 1.5646300827 1.7538234063 -2.8572051608
H 2.2587631373 0.3042775661 -2.1387736631
C 0.3695728236 -0.1269082809 -6.4718571651
C -0.5922008546 0.5234996489 -7.4625824376
Cl 2.0336275316 -0.1793047880 -7.2115441983
H 0.0979883712 -1.1712405019 -6.2932836022
H -0.3253624002 1.5675059865 -7.6528155468
H -0.5705126280 -0.0144575208 -8.4130979053
H -1.6224912554 0.4809177363 -7.0871356041
C -5.4884541613 -0.2778543398 -1.8547086957
C -6.0079824358 -0.0802267222 -3.2808652942
Cl -6.9425489676 -0.5129322476 -0.7670894647
H -4.9584591246 -1.2340834658 -1.7868996762
H -6.6947774952 -0.8847280899 -3.5531326545
H -6.5383127120 0.8718262934 -3.3785790466
H -5.1807764441 -0.0991916546 -3.9992487747
