148
# extracted from Terachem optimization
Co -0.0705554304 -0.2796011192 -0.3274712198
O -0.0757244215 2.1427507334 -0.2650227164
C 1.1956306729 2.5460975927 -0.8369790889
C 1.4915441210 4.0353020431 -0.6193439234
C 1.3891185825 4.4502229645 0.8596148982
C 0.0417882500 3.9583784503 1.3353537721
C -0.5911444699 2.9394782269 0.7551148998
H 2.1861678747 3.9319874312 1.4139457265
H 0.7546232150 4.5946787735 -1.2038829639
H 2.4660151791 4.2653472373 -1.0572078503
H -1.5921263161 2.6114522245 1.0040987172
H -0.4726727985 4.4852889152 2.1312709883
H 1.0601657002 2.3930971309 -1.9137442389
N 1.8610412106 0.2683801639 -0.1965051634
C 2.2622508409 1.5533812847 -0.3729478833
C 3.6009818820 1.9146250323 -0.2263288651
C 4.5867478796 0.9759530218 0.1102709701
C 4.1362382334 -0.3413485096 0.2904682511
C 2.7949826847 -0.6481256702 0.1366833252
H 3.8740865608 2.9489232566 -0.3763765815
H 2.4493203296 -1.6659805513 0.2756254393
H 4.8195485713 -1.1414633622 0.5505177525
C 6.0753011336 1.3338999321 0.2506681804
C 6.3154984369 2.8515796370 0.1999079868
C 6.6067721306 0.8024106230 1.6092879719
C 6.8055913981 0.5983709241 -0.8749735539
C 7.5060803695 1.1458662642 -1.8678777606
H 5.7800797864 3.3614446285 1.0083569302
H 7.3811311045 3.0563896999 0.3308892950
H 6.0119631046 3.2973759389 -0.7528380631
H 6.5152136581 -0.2847061050 1.6964669645
H 7.6682895107 1.0488374319 1.7041707545
H 6.0711794506 1.2607668511 2.4483544765
H 6.7483580033 -0.4891131398 -0.8167442477
H 8.0131163868 0.5214683683 -2.5977287205
H 7.6257774846 2.2178946677 -1.9906869471
C 1.6075891086 5.9766707833 1.1185816352
C 2.9754144421 6.4205049836 0.5414299275
C 0.4942297182 6.8343025627 0.4728214887
C 1.6430008706 6.2815275039 2.6108244396
C 1.7421124317 5.4405489370 3.6416064061
H 2.9797194741 6.4083208684 -0.5545074257
H 3.2041531214 7.4452906608 0.8511055015
H 3.7875542049 5.7806013979 0.9069885525
H -0.4998312009 6.5629186615 0.8423919875
H 0.6540355622 7.8928326080 0.7028880067
H 0.4911522171 6.7414300112 -0.6189293340
H 1.6187649855 7.3502111951 2.8280979716
H 1.7974042872 5.8145985797 4.6597379413
H 1.7757138673 4.3594583641 3.5322699261
O -0.0479053030 -2.5984034621 -0.2557299510
C -0.6904943190 -2.9736869042 0.9992369220
C -0.5089890939 -4.4606953811 1.3183065025
C 0.9679538413 -4.8987989485 1.2951246067
C 1.5382558478 -4.4114264582 -0.0170856822
C 1.0131314446 -3.3905263155 -0.6923716508
H 1.4839915245 -4.3894224492 2.1228152752
H -1.0670825254 -5.0209235862 0.5616534326
H -0.9948925349 -4.6724961025 2.2741662367
H 1.3498644400 -3.0536804528 -1.6666128557
H 2.3740311232 -4.9370590309 -0.4659546546
H -1.7528990594 -2.7860279117 0.8117676285
N -0.0323514046 -0.7015058041 1.6328531882
C -0.2459008237 -1.9702783272 2.0595592949
C -0.1403702766 -2.3049553419 3.4097142237
C 0.1932125683 -1.3483508088 4.3765840098
C 0.3991616903 -0.0425662659 3.9043308065
C 0.2890926803 0.2338773747 2.5526960767
H -0.3212224775 -3.3286763075 3.7051723329
H 0.4488840316 1.2395948542 2.1827217518
H 0.6358431600 0.7643384780 4.5882121915
C 0.3797201439 -1.6764889999 5.8592789496
C 0.0820319223 -3.1586442312 6.1838445316
C 1.8615454926 -1.3826242464 6.2270936284
C -0.5270909442 -0.8207618176 6.7408542132
C -1.6401766887 -0.1757509990 6.3926960583
H 0.7690798880 -3.8355512595 5.6617245692
H 0.2120268134 -3.3298228151 7.2564032872
H -0.9493851422 -3.4272110962 5.9345449020
H 2.1214410549 -0.3318307204 6.0674298342
H 2.0321634466 -1.6119821184 7.2839384196
H 2.5423742067 -2.0027747760 5.6338859222
H -0.2181606221 -0.8063737502 7.7861946669
H -2.2267537918 0.3618180428 7.1315077245
H -2.0198266824 -0.1601039654 5.3740530054
C 1.1918011719 -6.4293363342 1.5211010606
C 0.5354246929 -6.8695738870 2.8537921525
C 0.5947708764 -7.2721289115 0.3698924064
C 2.6755774754 -6.7564831671 1.6360366831
C 3.7092323895 -5.9331015916 1.8193805171
H -0.5588265509 -6.8360009945 2.8017619022
H 0.8135766596 -7.9014547705 3.0905640119
H 0.8705416541 -6.2416682598 3.6880040083
H 1.0184138872 -6.9992715779 -0.6022212918
H 0.8041709761 -8.3342801418 0.5338543045
H -0.4941400216 -7.1669865464 0.3108446958
H 2.8808984663 -7.8271276804 1.5992007259
H 4.7169112291 -6.3232763410 1.9285743711
H 3.6120292353 -4.8516617980 1.8748617737
O -2.0533412555 -0.6380789608 -0.4765461752
C -2.4295835790 -1.0714693945 -1.8306097375
C -3.9053566974 -0.7977177826 -2.1240199290
C -4.2954731889 0.6657010440 -1.8441552433
C -3.8865153107 0.9434521238 -0.4179300591
C -2.8813266630 0.3035036623 0.1700204476
H -3.7025517580 1.3044263731 -2.5165851311
H -4.5003874329 -1.4654837517 -1.4937029166
H -4.1096570031 -1.0851067754 -3.1573281095
H -2.5807209921 0.3969606680 1.2055030920
H -4.4554044722 1.6472772022 0.1800371577
H -2.2646066279 -2.1549147031 -1.7992040112
N -0.1989836585 -0.1990685301 -2.2975659787
C -1.4113702892 -0.5087946552 -2.8096582184
C -1.6558280737 -0.4552684543 -4.1821771829
C -0.6488903162 -0.0932103762 -5.0851721290
C 0.6149935894 0.1678358217 -4.5284380171
C 0.7945574135 0.1104158475 -3.1586687394
H -2.6404298976 -0.7091784899 -4.5492925370
H 1.7617014693 0.3019289276 -2.7118562793
H 1.4615663556 0.4041606311 -5.1626336467
C -0.8799231371 0.0503844825 -6.5905061866
C -2.3279547848 -0.2973034977 -7.0046797249
C -0.6036356017 1.5328066647 -6.9712385790
C 0.0595398815 -0.8481067086 -7.3914437607
C 0.7100956292 -1.9348094146 -6.9765070639
H -3.0562670844 0.3818068823 -6.5450350672
H -2.4316791192 -0.1964022625 -8.0889728366
H -2.5845711464 -1.3305590442 -6.7501092453
H 0.4303615939 1.8228064528 -6.7616941080
H -0.7794690222 1.6764811265 -8.0422155269
H -1.2713779558 2.2090300409 -6.4265244664
H 0.1376608118 -0.5581947008 -8.4393775062
H 1.3143332630 -2.5183618031 -7.6644229239
H 0.6663254484 -2.2956596486 -5.9517281474
C -5.7964375608 0.9986246189 -2.1291972890
C -6.1455312662 0.6381037820 -3.5945609173
C -6.7451394610 0.2211716610 -1.1866849573
C -6.0683046682 2.4884964202 -1.9632162116
C -5.1997724237 3.4957393166 -1.8567458552
H -6.1514398530 -0.4454565960 -3.7590193574
H -7.1451879291 1.0049223051 -3.8480377453
H -5.4405535302 1.1003375576 -4.2955424855
H -6.5556380830 0.4461473485 -0.1319232947
H -7.7853791399 0.4898378143 -1.3974193656
H -6.6609309227 -0.8622923397 -1.3262543104
H -7.1315663572 2.7310306270 -1.9731301120
H -5.5472552491 4.5220387844 -1.7829450558
H -4.1212122590 3.3601770548 -1.8430837720
