115
# extracted from Terachem optimization
Co 0.4619456520 0.3715992287 0.2355206940
O 0.6629852029 2.4604076964 0.6009350887
C 2.0220480992 2.9116891774 0.3194017261
O 2.2161442408 4.0387447035 1.0805185996
C 0.9667816565 4.7676215507 0.9672710449
C -0.0579549650 3.6284025025 1.1246110281
H -0.3223820971 3.4232964919 2.1642435051
H -0.9520512458 3.7894839236 0.5213770546
H 0.8972811789 5.1644130305 -0.0521039409
H 2.0768567331 3.1257889795 -0.7616833324
N 2.5835350652 0.5796766886 0.5202286069
C 3.0068130366 1.8064219631 0.6669924239
S 4.5664797603 2.3559055258 1.1546246797
C 5.5537151744 0.7855270165 1.3488378424
C 4.7334859977 -0.4410025316 1.1153225284
C 3.4341569628 -0.5105311749 0.7669850225
H 5.8693243448 0.7980399575 2.4029042019
H 2.9440710969 -1.4688236026 0.6523589973
H 5.2551591291 -1.3820918578 1.2742039186
C 6.8693554495 0.8921755681 0.5070098294
C 6.6477920121 0.7228755089 -1.0012786357
C 7.9248881823 -0.1087347795 1.0054192763
Cl 8.2787653203 0.0686134687 2.7684094468
H 7.2695329581 1.8962869301 0.6984325556
H 7.5852137297 0.8799292911 -1.5427918800
H 6.2814519382 -0.2804016794 -1.2489231996
H 5.9295980832 1.4582056903 -1.3811989034
H 7.6344571434 -1.1485847467 0.8370176577
H 8.8658043596 0.0718106579 0.4810254290
C 0.9266309024 5.9325656397 1.9647180461
C 1.2954392204 5.5359306047 3.4030880383
C -0.4430404467 6.6295076322 1.9624202506
Cl -1.0801408135 6.9828180934 0.2989210842
H 1.6716956893 6.6509004459 1.6030098113
H 1.3055683940 6.4220621570 4.0449105720
H 0.5757411824 4.8301811169 3.8369275211
H 2.2918186736 5.0886576997 3.4433130941
H -1.2051907532 6.0270075445 2.4642776924
H -0.3744642717 7.5887699983 2.4769194729
O 0.3892241782 -1.8131618351 0.1817489328
C -0.5460999369 -2.3105736383 1.1757767166
O -0.3454121997 -3.6657898031 1.2531210201
C -0.1713634492 -4.0779831269 -0.1294878058
C 0.7434215376 -2.9596342242 -0.6638887356
H 1.8054453656 -3.1679975301 -0.5187078656
H 0.5401963675 -2.7045854700 -1.7042920475
H -1.1454662665 -4.0040578989 -0.6272472509
H -1.5600043687 -2.0541718712 0.8287735259
N 0.1163099503 -0.3334988982 2.3401854000
C -0.2474662203 -1.5826821165 2.4731630449
S -0.4415522897 -2.5097225498 3.9124220792
C -0.1351595803 -1.2768335562 5.2677421998
C 0.2898176023 0.0557921927 4.7541983195
C 0.3973723616 0.4467489962 3.4638752785
H 0.7002509952 -1.7094198899 5.8435290976
H 0.7409080963 1.4469467512 3.2290656892
H 0.5642151302 0.7814876443 5.5166904172
C -1.3553258951 -1.2656719378 6.2578039150
C -2.5931681819 -0.5550180234 5.6976774668
C -0.9527061676 -0.6533534324 7.6094491461
Cl 0.4781398626 -1.4679838296 8.3497811770
H -1.5988789792 -2.3194198422 6.4443018709
H -3.4184285637 -0.6126291946 6.4134788174
H -2.3962269246 0.5045633124 5.4965628582
H -2.9398195135 -1.0274324061 4.7719553124
H -0.7190586170 0.4116078554 7.5386770557
H -1.7778456210 -0.7756144221 8.3150873987
C 0.3250056592 -5.5264609273 -0.2093273300
C 1.5191017374 -5.8288849472 0.7105509466
C 0.6816948140 -5.9157515352 -1.6523404239
Cl -0.5869404541 -5.4507349653 -2.8684452305
H -0.5214743781 -6.1470842663 0.1071600268
H 1.8110514310 -6.8785489893 0.6101198195
H 2.3990614373 -5.2216290953 0.4656663091
H 1.2598697257 -5.6578466041 1.7582859030
H 1.6116767095 -5.4457115855 -1.9833194779
H 0.7989529010 -6.9971920712 -1.7288581194
O -1.6959402559 0.4232300512 -0.0383578163
C -2.0582583437 0.3032281773 -1.4449152233
O -3.1841440273 1.0717390641 -1.6328145194
C -3.9586119980 0.8969838897 -0.4189289180
C -2.8542448471 1.0168343422 0.6398597544
H -2.6140276782 2.0511541955 0.8928845313
H -3.0596488165 0.4338055927 1.5378058082
H -4.3498132626 -0.1273646710 -0.4068567745
H -2.2501254414 -0.7680823519 -1.6270513728
N 0.3030822814 0.6481642870 -1.8861385459
C -0.9160794901 0.7512510628 -2.3489549604
S -1.4257103372 1.2233928311 -3.9264982624
C 0.1636280614 1.6300971249 -4.8105876391
C 1.3693129267 1.2466014257 -4.0170152545
C 1.4085166283 0.8540645764 -2.7284679009
H 0.1468420669 2.7259166698 -4.9233396440
H 2.3561063837 0.6451954994 -2.2459891101
H 2.3202625455 1.3381612060 -4.5364245833
C 0.0933862406 1.0497191387 -6.2611430438
C 0.2643847419 -0.4738858715 -6.3211360690
C 1.1197240830 1.7365796521 -7.1767784741
Cl 0.9587784157 3.5373753944 -7.1853831232
H -0.8998414142 1.3139178073 -6.6474260048
H 0.1726490265 -0.8266604889 -7.3526160317
H 1.2450708815 -0.7889478893 -5.9456754075
H -0.5079025807 -0.9854056246 -5.7367131112
H 2.1525916417 1.5065655040 -6.9045386067
H 0.9577387910 1.4081469654 -8.2057629652
C -5.1316658916 1.8850942919 -0.3770565259
C -4.7365572041 3.3394441799 -0.6805194977
C -5.8661609138 1.8275216445 0.9712773392
Cl -6.2295334461 0.1388221204 1.5359192047
H -5.8263030437 1.5465706679 -1.1546846673
H -5.6280500020 3.9735359148 -0.6994212999
H -4.0599080883 3.7545425865 0.0768095441
H -4.2551604432 3.4189325005 -1.6582301476
H -5.2868959739 2.3011647349 1.7686064935
H -6.8260048652 2.3399453000 0.8965302014
