202
# extracted from Terachem optimization
Co 0.3383082780 0.6305189406 0.7605506829
O 0.7155641395 2.8399006871 1.4672655554
C 2.0941825972 3.0496620463 1.7515088593
C 2.6965062861 4.2511812967 1.0499514931
C 1.9650466669 5.1871483210 0.4353477484
C 0.4626459861 5.0136923441 0.3516734217
C -0.0406838554 4.0704822813 1.4354045852
H 3.7718470909 4.3311349559 1.1553893169
H 2.2126632501 3.1984830090 2.8408269829
H 0.0330386008 4.5477810923 2.4223472010
H -1.0742353362 3.7697862326 1.2587669820
H 0.1699373752 4.6485606598 -0.6414182455
H -0.0399275279 5.9759422140 0.4930741279
N 2.3091206738 0.7246902721 0.9271888711
C 2.8636183143 1.7744956888 1.4313179169
O 4.1344959496 1.9097901901 1.7749276516
C 5.0981931579 0.8275713418 1.5376361881
C 4.6063944549 -0.0275523891 0.3795540762
C 3.1566405356 -0.4409164500 0.6239971673
H 5.0989892146 0.2397733387 2.4606109648
H 4.6723396519 0.5468897578 -0.5513698417
H 5.2452832293 -0.9089107094 0.2785634677
H 3.0829585213 -1.1532107668 1.4558974231
H 2.7306642600 -0.9387970946 -0.2488518202
C 6.4967259016 1.4843083412 1.3486309599
N 6.4211444217 2.3266921791 0.1465823342
C 6.8092293195 2.4088121098 2.5432893706
C 7.5451627634 0.3475000349 1.2992989336
C 8.4394643218 0.2115397054 0.2315653676
C 9.3958387447 -0.8052632336 0.2108620600
C 9.5005474260 -1.7279639968 1.2568206486
C 10.5569762204 -2.8061197605 1.2503486969
C 8.6077322494 -1.5919633141 2.3293400840
C 7.6560623800 -0.5753228384 2.3539602506
H 7.1623592503 3.0241546060 0.1644478086
H 6.5689067894 1.7788365034 -0.6980317628
H 6.7666976015 1.8649434137 3.4911808884
H 7.8240868836 2.8065674666 2.4403458592
H 6.1068758768 3.2453780858 2.5876961470
H 8.4151128297 0.9141615253 -0.5956464261
H 10.0760549130 -0.8755157100 -0.6343304466
H 10.8454148020 -3.0796212146 0.2306230424
H 11.4651568670 -2.4683272029 1.7659887245
H 10.2122759251 -3.7108221452 1.7615884897
H 8.6658532962 -2.2868909032 3.1636793354
H 7.0063859254 -0.4989420184 3.2226439978
C 2.5572474116 6.4949758604 -0.1285153357
N 1.8662287828 7.5740062216 0.6073401550
C 4.0606043622 6.6358955535 0.1859372485
C 2.3901524965 6.5594700289 -1.6644292966
C 1.9805873037 7.7331094140 -2.3087918516
C 1.9411571939 7.8196787278 -3.7002701357
C 2.3185605636 6.7397075113 -4.5075088631
C 2.3434189870 6.8650017316 -6.0127396602
C 2.7139181011 5.5587399308 -3.8635791973
C 2.7496632717 5.4704803347 -2.4705966936
H 2.4485830003 8.4075450316 0.6466611411
H 1.0019978170 7.8471729504 0.1458537747
H 4.6448004982 5.8252128056 -0.2572631129
H 4.4303179393 7.5738417917 -0.2407809190
H 4.2301746915 6.6540489211 1.2675745350
H 1.7078486712 8.6072033405 -1.7253837924
H 1.6275245295 8.7517093497 -4.1646616129
H 1.4573171725 7.3886056649 -6.3892856118
H 3.2173650618 7.4406343272 -6.3429962753
H 2.3955567632 5.8851204847 -6.4972300985
H 3.0223599655 4.7045563814 -4.4631288449
H 3.0879253797 4.5481940008 -2.0035070245
O 0.2540543105 -1.6534709566 0.4170966264
C 0.0346985250 -2.3448521293 1.6662426693
C -1.2736963288 -3.1019724417 1.7333116522
C -1.6542638783 -3.8038510918 0.6584683702
C -0.7629951508 -3.6971882199 -0.5577622245
C -0.3634097354 -2.2365587119 -0.7557630283
H -1.8463667755 -3.0762658046 2.6548265695
H 0.8706832887 -3.0527217979 1.7923387025
H 0.3676582859 -2.1246747248 -1.5621370529
H -1.2549921090 -1.6466355654 -0.9942855205
H -1.2596041883 -4.0549809822 -1.4653144718
H 0.1344542878 -4.3200934470 -0.4385130755
N 0.2493794535 -0.0749801262 2.6196570792
C 0.1629757110 -1.3493626974 2.7998944620
O 0.2029117524 -1.9802973205 3.9617397377
C -0.0171500450 -1.2828776891 5.2374057058
C -0.4363000721 0.1572993858 4.9800200342
C 0.3839138812 0.7487058073 3.8342341483
H 0.9579778930 -1.3101956790 5.7302598769
H -1.4964030109 0.1921268960 4.7094712238
H -0.3017728646 0.7409442265 5.8945070811
H 1.4474202278 0.8087337735 4.1041003112
H 0.0551309312 1.7581077643 3.5888545934
C -1.0412374179 -2.1374355787 6.0462246026
N -2.2893418685 -2.1481132546 5.2657145956
C -0.5357384984 -3.5917224986 6.1469516881
C -1.1609972325 -1.5407295462 7.4651842651
C -2.4026399318 -1.2373196610 8.0384861261
C -2.4988102357 -0.7284834296 9.3335583200
C -1.3593605314 -0.5013023762 10.1146300119
C -1.4725780283 0.0318153795 11.5222911414
C -0.1174751014 -0.8127583740 9.5469216549
C -0.0192568316 -1.3268473440 8.2548266783
H -2.8160274333 -2.9995684447 5.4447297374
H -2.8962898418 -1.3742259546 5.5231665582
H 0.4554242977 -3.6354141385 6.6071312253
H -1.2161599107 -4.1729322785 6.7776130429
H -0.4833485006 -4.0542791186 5.1576886761
H -3.3216288729 -1.4190569760 7.4891529750
H -3.4818328678 -0.5110811644 9.7446567961
H -2.1399134855 0.8996962318 11.5697113108
H -1.8841349061 -0.7273344907 12.1991197901
H -0.4982161177 0.3327529919 11.9182190313
H 0.7885290028 -0.6602772251 10.1282834071
H 0.9691147891 -1.5773374885 7.8769151152
C -2.9272289667 -4.6497908230 0.5927449765
N -3.5144398995 -4.7216695255 1.9483180674
C -3.9578639858 -3.9126401976 -0.2866800951
C -2.5549521742 -6.0467651100 0.0467677215
C -1.5552799799 -6.7846708972 0.7031395820
C -1.2129774624 -8.0685535962 0.2906481347
C -1.8545858059 -8.6745596016 -0.8000772922
C -1.5066100863 -10.0807417162 -1.2246474132
C -2.8404256954 -7.9353596529 -1.4620595568
C -3.1854686682 -6.6454945844 -1.0497548163
H -4.4326461546 -5.1603974546 1.8765438234
H -2.9584826832 -5.3598225407 2.5176874167
H -3.5837487085 -3.7220633798 -1.2971829489
H -4.8788844738 -4.4978832474 -0.3800733978
H -4.2098559860 -2.9593660813 0.1867641510
H -1.0314721627 -6.3455135601 1.5509182097
H -0.4347928363 -8.6120444263 0.8215528255
H -0.4481753384 -10.3013022378 -1.0514957499
H -2.0882124507 -10.8182075774 -0.6563542443
H -1.7203434268 -10.2463659081 -2.2851960037
H -3.3507403844 -8.3723091315 -2.3170355333
H -3.9570250661 -6.1156881706 -1.5987892597
O -1.6627118989 0.8845211237 0.6128388233
C -2.1518008505 1.2126182336 -0.7144733237
C -2.9679858827 2.4796495404 -0.7098507784
C -3.8970874810 2.6025215098 0.2478290876
C -4.0110476582 1.4425251272 1.2118947899
C -2.6310620682 0.9905086785 1.6986217844
H -2.7869151259 3.2383162888 -1.4636300469
H -2.7655877107 0.3636894812 -1.0560306507
H -2.6795279802 0.0098600329 2.1784855179
H -2.2217424909 1.7176583899 2.4058880873
H -4.6184214242 1.6894107920 2.0882884704
H -4.5235257299 0.6022366817 0.7233354915
N 0.2445814574 1.1012176740 -1.1558513632
C -0.9469843922 1.2750324257 -1.6198615822
O -1.3039030603 1.4916922621 -2.8699430188
C -0.2843458910 1.5677736679 -3.9241275250
C 1.0138277949 2.0690000476 -3.3106163933
C 1.3805534392 1.2343469380 -2.0831858182
H -0.1670560874 0.5387692606 -4.2761713587
H 0.8929628876 3.1148932941 -3.0131314067
H 1.8123775110 2.0189541907 -4.0562182607
H 1.7153142392 0.2288164226 -2.3703770833
H 2.1972640779 1.7013715111 -1.5297196662
C -0.8805780105 2.4495263331 -5.0583604403
N -1.0470158865 3.7980663396 -4.5004506751
C -2.2808469558 1.9270820208 -5.4435785468
C 0.0451417129 2.3501775512 -6.2925549058
C 0.4645528939 3.4944594385 -6.9814104206
C 1.2515010192 3.4029108984 -8.1307030491
C 1.6578834941 2.1639507753 -8.6390589302
C 2.5284538164 2.0650135576 -9.8683790925
C 1.2280274697 1.0169082412 -7.9586531389
C 0.4354625367 1.1060269169 -6.8157293184
H -1.7521221246 4.3148231476 -5.0206384866
H -0.1864976631 4.3383260412 -4.5568826521
H -2.2461371853 0.8742551412 -5.7392331200
H -2.6582323504 2.4946465407 -6.3002966806
H -2.9790074779 2.0378535796 -4.6097329101
H 0.1555452473 4.4775436514 -6.6406944550
H 1.5422377494 4.3145238952 -8.6474991148
H 3.5929157468 2.1220415019 -9.6055066152
H 2.3242309450 2.8789761847 -10.5712309992
H 2.3727507466 1.1170985555 -10.3925236218
H 1.5044699719 0.0360362742 -8.3380464391
H 0.1014845664 0.1810058260 -6.3516004873
C -4.8098788444 3.8211112699 0.4042079160
N -4.6094752487 4.7014200345 -0.7647022292
C -4.3408941611 4.6217642544 1.6366024522
C -6.2689077825 3.3268899202 0.5276901005
C -6.7984402108 2.5140415645 -0.4888747224
C -8.1199119906 2.0794254270 -0.4549205028
C -8.9736456084 2.4367429758 0.5996199418
C -10.4165238020 1.9931876523 0.6193607342
C -8.4431838433 3.2353002396 1.6181571350
C -7.1166120990 3.6728229569 1.5864457386
H -5.0819624243 5.5876441363 -0.5877590940
H -5.0819730287 4.3025543314 -1.5756966926
H -3.3243951007 4.9834459899 1.4592974081
H -4.9848931538 5.4919160121 1.8006400671
H -4.3525339728 4.0230331075 2.5524562108
H -6.1653164034 2.2125625464 -1.3221912404
H -8.4982781539 1.4525915159 -1.2590821442
H -10.5419341604 1.0151630179 0.1435518865
H -11.0533126598 2.7026392875 0.0751478725
H -10.8030041215 1.9282143284 1.6412356418
H -9.0761311372 3.5241697191 2.4537634924
H -6.7574294577 4.2913672284 2.4022091906
