169
# extracted from Terachem optimization
Co 0.3394657901 0.5062727001 -0.4410026377
O 0.4266595803 2.6649164312 -0.3514346291
C 0.1258689348 3.6556876083 -1.3715284684
N -0.4882945588 4.7335053660 -0.6074276113
C 0.1129557763 4.6628483369 0.6788323052
C 0.6322190226 3.4330907510 0.8366986674
H 0.9913687907 2.8901533924 1.6923343489
H -0.4185972762 5.6431146849 -1.0563371889
H -0.5447789280 3.2108017940 -2.1066153211
H 1.0781371384 3.9508672482 -1.8446224457
C 0.0626313803 5.7750085740 1.6289259294
C -0.9403548713 6.7533289196 1.5448887846
C -0.9858640160 7.7984176403 2.4677772510
C -0.0297617883 7.8957743068 3.4846785385
C -0.1007230082 8.9823304667 4.5710612923
N -0.9528373487 10.0805970954 4.1221508792
O -0.6747167227 8.4601923603 5.7533208129
N 1.2442972340 9.3497161460 4.9833375406
C 0.9721938547 6.9170703113 3.5687260089
C 1.0233974061 5.8762340644 2.6518861273
H -1.7069608023 6.6847851166 0.7781235260
H -1.7782458122 8.5369036617 2.4061101989
H -1.0098154656 10.7919971316 4.8495495709
H -0.6159217157 10.5165294036 3.2654502232
H -1.6282439695 8.3751135051 5.5852054660
H 1.7342889690 9.8920280242 4.2767183448
H 1.2204199587 9.8606119100 5.8637122139
H 1.7141911375 6.9971697734 4.3556458217
H 1.8288626963 5.1489817994 2.7096131757
O 2.5055755015 0.4186787788 -0.5147413931
C 3.4962789765 1.4290811641 -0.1838845936
N 4.5606802172 0.6509849458 0.4364394000
C 4.4933534992 -0.6262970238 -0.1850381048
C 3.2709328678 -0.7704063967 -0.7250416396
H 2.7296040455 -1.6172980010 -1.1071433002
H 5.4734513038 1.0960858246 0.3861736436
H 3.0443416534 2.1568534875 0.4899391911
H 3.8090582442 1.9147209832 -1.1240633399
C 5.6010385958 -1.5814476316 -0.1321254815
C 6.5681375689 -1.5117476563 0.8827836011
C 7.6102362997 -2.4378607396 0.9295572442
C 7.7155891732 -3.4443965524 -0.0367171637
C 8.7998239318 -4.5331120878 0.0345932365
N 9.8936821303 -4.0899178333 0.8953563957
O 8.2731908996 -5.7175853438 0.5999986219
N 9.1742358496 -4.9392461572 -1.3104433159
C 6.7476737148 -3.5146466365 -1.0500967334
C 5.7101383714 -2.5940848834 -1.1028848167
H 6.4932172024 -0.7532714851 1.6569933163
H 8.3405238108 -2.3867452732 1.7302474893
H 10.6044215592 -4.8179953158 0.9517931844
H 10.3318245339 -3.2313809271 0.5660641751
H 8.1841285192 -5.5542192048 1.5539846183
H 9.7218681469 -4.2313761913 -1.7926999081
H 9.6833527860 -5.8206866708 -1.2874949902
H 6.8337637175 -4.2935063507 -1.7998749042
H 4.9921597719 -2.6406381136 -1.9173438959
O 0.2918762949 -1.6426784867 -0.5025476429
C 0.3446217933 -2.5896868787 0.6053277952
N -0.5382130300 -3.6596917701 0.1574847968
C -0.4760095128 -3.6384094364 -1.2601112328
C -0.0137335858 -2.4377086953 -1.6504809398
H 0.0347372434 -1.9371470027 -2.6021648408
H -0.3292086585 -4.5622068824 0.5755002292
H -0.0089568595 -2.0863175978 1.5045104828
H 1.3933693191 -2.9084862123 0.7230075950
C -0.9290432556 -4.7700994321 -2.0708365177
C -1.8093410537 -5.7260074180 -1.5403197050
C -2.2320842994 -6.8055031077 -2.3158910272
C -1.7793938333 -6.9602974963 -3.6304861469
C -2.2716237667 -8.1037702289 -4.5331358547
N -2.8461578699 -9.1691008973 -3.7153901742
O -3.2859819865 -7.6516795411 -5.4092569404
N -1.2048124968 -8.5041595383 -5.4380244412
C -0.9081599914 -5.9983820630 -4.1645294041
C -0.4840892622 -4.9221831832 -3.3970904763
H -2.1886480109 -5.6166880830 -0.5281419773
H -2.9255712694 -7.5286971431 -1.8998979481
H -3.1841962405 -9.9210445152 -4.3143125574
H -2.1804183368 -9.5566463192 -3.0491410377
H -4.0891881412 -7.5464214449 -4.8720806782
H -0.4626447316 -9.0139515643 -4.9658839656
H -1.5796066235 -9.0616420339 -6.2031628506
H -0.5589014746 -6.1224509529 -5.1836815389
H 0.2177883160 -4.2062507761 -3.8163090485
O -1.8162959997 0.5571847670 -0.4095145440
C -2.7527818971 -0.5584733290 -0.4764616032
N -3.8173609817 -0.1400817485 0.4266336643
C -3.8139095604 1.2790693370 0.3875407609
C -2.6219639076 1.6909811261 -0.0785722548
H -2.1325834876 2.6491767976 -0.1169452731
H -4.7170128325 -0.5656738487 0.2205141526
H -2.2356840812 -1.4594959663 -0.1488210469
H -3.0820572478 -0.6565604716 -1.5241871705
C -4.9511026820 2.0684147725 0.8640295129
C -5.8966605699 1.5099300378 1.7381475993
C -6.9814211297 2.2654785098 2.1831794821
C -7.1520003499 3.5875762956 1.7591063671
C -8.3018490427 4.4678692715 2.2762068581
N -9.3544081721 3.6275900085 2.8418688475
O -7.8525965821 5.3299607476 3.3035518535
N -8.7195997863 5.3878991466 1.2290554710
C -6.2004645302 4.1495155001 0.8940278034
C -5.1190676710 3.4021570853 0.4479929462
H -5.7753417395 0.4911024150 2.0954008654
H -7.6964081478 1.8277092978 2.8717682571
H -10.1115665461 4.2117499462 3.1937457049
H -9.7376866600 2.9688712907 2.1662243226
H -7.7362219712 4.7791464148 4.0959003587
H -9.2281823564 4.9238813658 0.4809841198
H -9.2830431666 6.1400243912 1.6208976965
H -6.3368578469 5.1744105430 0.5667643830
H -4.4111894667 3.8433262134 -0.2485938391
O 0.3838792327 0.4546211370 1.7054798932
C -0.7402248413 0.5076456697 2.6331422070
N -0.3371997135 -0.4218489812 3.6807702974
C 1.0822159053 -0.3916308748 3.6910427854
C 1.5078178088 0.0972761716 2.5130095376
H 2.4708864588 0.1427295153 2.0338955785
H -0.7696773504 -0.2329043019 4.5809212048
H -1.6371949563 0.1968558262 2.0992697828
H -0.8346938221 1.5483589587 2.9845373729
C 1.8574749761 -0.8969683008 4.8254172440
C 1.2820517290 -1.7815726792 5.7508692859
C 2.0232953054 -2.2526742214 6.8344619876
C 3.3478775371 -1.8448337134 7.0240802851
C 4.2119207425 -2.3891446058 8.1737159513
N 3.3560627322 -2.9652775499 9.2079242483
O 5.0697435757 -3.4164256688 7.7160197269
N 5.1365882856 -1.3569597897 8.6175632504
C 3.9270492083 -0.9698121475 6.0921649817
C 3.1939558045 -0.4978369263 5.0120305086
H 0.2607751671 -2.1263009634 5.6147043988
H 1.5720886117 -2.9486976801 7.5337307158
H 3.9296925328 -3.3336967177 9.9652635142
H 2.6992337097 -2.2902950260 9.5956748194
H 4.5134861738 -4.2021451224 7.5819734616
H 4.6735067319 -0.6124357061 9.1321893131
H 5.8791656869 -1.7636365388 9.1831871333
H 4.9539279418 -0.6553074627 6.2430980513
H 3.6487357249 0.2059287344 4.3200317079
O 0.2721764976 0.6003119035 -2.5941961502
C 1.3195782317 0.3581189813 -3.5714821358
N 0.5911698136 -0.2290673118 -4.6880773111
C -0.7080889363 0.3426001739 -4.6238817924
C -0.9031955812 0.8141689466 -3.3801121376
H -1.7762199994 1.1349762138 -2.8407324409
H 1.0581451525 -0.1203071109 -5.5845646907
H 2.0580065848 -0.3143172613 -3.1350787825
H 1.7807353259 1.3296925885 -3.8197925956
C -1.6360442233 0.3095750111 -5.7553478907
C -1.5212974076 -0.6673242670 -6.7566126759
C -2.4286597862 -0.7019405942 -7.8157603265
C -3.4589557985 0.2403155860 -7.9048411807
C -4.5332785535 0.1772383995 -9.0038177739
N -4.0697556667 -0.6589104244 -10.1081434568
O -5.7175235803 -0.4083036002 -8.4994912918
N -4.9484801260 1.5247546243 -9.3584542149
C -3.5715798523 1.2183225275 -6.9049247467
C -2.6713240233 1.2578210197 -5.8492993807
H -0.7440045559 -1.4238471465 -6.6948532417
H -2.3449966098 -1.4765618920 -8.5707209409
H -4.7913339032 -0.7131347275 -10.8256672432
H -3.2125309331 -0.3103014013 -10.5336955587
H -5.5447588942 -1.3616170966 -8.4216518726
H -4.2377102738 2.0261679772 -9.8846584326
H -5.8220733344 1.5031982850 -9.8809757172
H -4.3685019900 1.9501625917 -6.9794325398
H -2.7523052115 2.0436964516 -5.1030676697
