139
# extracted from Terachem optimization
Co -0.7312489624 -0.3785944285 0.1965325361
O -0.7382312151 1.7776772598 0.2404507294
C -0.7252674740 2.7772993928 -0.8219031978
O 0.2189551257 3.7325402374 -0.3980969958
C 0.1767449258 3.6973646782 0.9963554384
C -0.4020270204 2.5612707299 1.3897792904
H -0.6228344722 2.1347723433 2.3506445623
H -1.7337273540 3.2080203046 -0.8809600978
H -0.4097633367 2.3146135872 -1.7543272107
C 0.7861434634 4.8627313699 1.7336947810
C 2.2292611917 5.1011059971 1.1992950254
C -0.0694429709 6.1200689931 1.4558882144
C 0.8645435610 4.5328175965 3.2207568153
C 0.3716732920 5.2782280077 4.2215964999
O 1.5718231535 3.3709287298 3.4443006005
H 2.2100442019 5.3241784521 0.1294662634
H 2.6641195446 5.9578252084 1.7212620327
H 2.8698851393 4.2331877763 1.3750065440
H -1.0901346062 6.0077661823 1.8340427061
H 0.3844322287 6.9964213852 1.9262645484
H -0.1136970533 6.3063827697 0.3796665860
H 0.5213040314 5.0004360219 5.2618999464
H -0.1684950526 6.1966961128 4.0391383585
H 1.7749822460 3.3086311046 4.3940810220
O 1.5016503536 -0.3359017163 0.1601142270
C 2.3216728683 0.8615912428 -0.0138957381
O 3.1798253384 0.5601943483 -1.0799593396
C 3.3976067021 -0.8182501304 -0.9838728831
C 2.4054787571 -1.3639232996 -0.2725017565
H 2.1485969469 -2.3807593276 -0.0329953789
H 2.8923621915 1.0083380103 0.9134998881
H 1.6891467798 1.7094793243 -0.2567529913
C 4.5989425143 -1.3600171123 -1.7407616259
C 4.1841647706 -1.6042917108 -3.2225314621
C 5.7422350740 -0.3228200470 -1.7001207011
C 5.0324992187 -2.6854911825 -1.1251475191
C 6.2616600730 -2.9802102070 -0.6521676149
O 4.0199899158 -3.6006776058 -1.1355463393
H 3.8530510209 -0.6656590544 -3.6782449738
H 5.0456059127 -1.9683008132 -3.7903175611
H 3.3827599348 -2.3440308211 -3.2916576481
H 6.0631616094 -0.1044187595 -0.6771844674
H 6.6004384184 -0.6962356766 -2.2644469314
H 5.4213438429 0.6121373446 -2.1625860263
H 6.4945123604 -3.9705063021 -0.2692120165
H 7.0635501618 -2.2558501890 -0.6469676268
H 4.3433917956 -4.4564254601 -0.8019432880
O -0.7597185667 -2.5341310247 0.0691931285
C -0.2906621334 -3.5457653903 1.0152313165
O 0.4395526140 -4.4607037355 0.2444386944
C -0.1339774725 -4.4104729097 -1.0282328709
C -0.8372355307 -3.2844953430 -1.1499238881
H -1.3492653338 -2.8266687950 -1.9754796109
H -1.1754819539 -4.0212495649 1.4592763591
H 0.3473112401 -3.0830956034 1.7648264931
C 0.1169268391 -5.5892770153 -1.9363435476
C 1.6399850427 -5.8939185778 -1.9821137929
C -0.6240779778 -6.8109724711 -1.3416289614
C -0.3593602362 -5.2657362488 -3.3483541503
C -1.2186371633 -5.9954246436 -4.0745566003
O 0.2520792845 -4.1347972103 -3.8462251694
H 1.9981095167 -6.1619336438 -0.9837653246
H 1.8125201188 -6.7457805780 -2.6457970873
H 2.2069428704 -5.0378101233 -2.3532521876
H -1.7069686209 -6.6566359298 -1.3212317368
H -0.4083033881 -7.7066155431 -1.9304775197
H -0.2792401341 -6.9935140405 -0.3205655691
H -1.4597135708 -5.7299089757 -5.1009352138
H -1.6809341117 -6.8918297309 -3.6860622154
H 0.1008286645 -4.1007947309 -4.8064936694
O -2.8473211230 -0.3247272555 0.4613632663
C -3.8488078786 -1.3168157683 0.0908780745
O -4.7255024055 -0.6472267071 -0.7774332611
C -4.7016254858 0.6866652969 -0.3435390085
C -3.6040508983 0.8896066715 0.3837887944
H -3.1812566307 1.7556476964 0.8574001132
H -4.3707532808 -1.6145731295 1.0108863596
H -3.3662823594 -2.1551634513 -0.4074905468
C -5.8604023752 1.5733329137 -0.7276592958
C -6.2715876412 1.3001882874 -2.2007428322
C -7.0500435839 1.2228716427 0.1986543550
C -5.4378679422 3.0337341221 -0.6004977619
C -6.0546317339 3.9720844419 0.1258660054
O -4.3353548943 3.3100213922 -1.3921456577
H -6.5604553400 0.2535223337 -2.3306962597
H -7.1342244178 1.9268924864 -2.4439776117
H -5.4651755271 1.5448059675 -2.8952994867
H -6.8197177723 1.4316088078 1.2472313610
H -7.9361780747 1.7959139843 -0.0883940744
H -7.2946668948 0.1613026283 0.1015684412
H -5.7211117078 5.0067955938 0.1170930654
H -6.9253403777 3.7508293592 0.7273054953
H -4.2644227956 4.2755088284 -1.4855334701
O -0.5784144502 -0.4577113191 2.3282366256
C 0.6648405759 -0.2941653739 3.0837909412
O 0.3178424966 -0.5064190509 4.4272388173
C -0.8563526556 -1.2480393465 4.4270041795
C -1.3923724834 -1.2426665070 3.2046751421
H -2.3059581975 -1.6366427928 2.8003685501
H 1.0451868009 0.7181704123 2.9452884241
H 1.3769472542 -1.0550053089 2.7391893600
C -1.2602120610 -1.8416915237 5.7582457867
C -0.2261568343 -2.9407424931 6.1454751972
C -1.2326846811 -0.7225648523 6.8241773713
C -2.6368569889 -2.4869496888 5.6471387758
C -3.6958418581 -2.2370250108 6.4402548544
O -2.6724885845 -3.4293606183 4.6530611337
H 0.7767251832 -2.5097905334 6.2121949202
H -0.4851532544 -3.3564175912 7.1236231538
H -0.2202959366 -3.7549452791 5.4168033939
H -1.9497677835 0.0733149494 6.6006236583
H -1.4653885305 -1.1398978535 7.8071857021
H -0.2337011065 -0.2849358054 6.8790869772
H -4.6259706049 -2.7888863065 6.3307586459
H -3.6592254599 -1.4983867759 7.2282338997
H -3.5001196405 -3.9375250384 4.7235818317
O -0.8335552993 -0.3199111124 -1.9905570610
C 0.2784830639 -0.2385393547 -2.9359709465
O -0.1607745785 0.6577544441 -3.9258005675
C -1.5433836473 0.5118585531 -3.9654136899
C -1.9599440195 -0.0654963752 -2.8305273645
H -2.9350714298 -0.3006608736 -2.4376786145
H 0.4245444356 -1.2446715647 -3.3516510031
H 1.1638996998 0.1474009423 -2.4364040298
C -2.2548801654 1.1335099607 -5.1432165496
C -2.3211920916 2.6656690915 -4.9055482610
C -1.4646449835 0.8568941676 -6.4553829310
C -3.6490678246 0.5184616795 -5.2943863873
C -3.8924276188 -0.8130362573 -5.3718645815
O -4.6146104174 1.4509381035 -5.4067769150
H -1.3067751757 3.0586839005 -4.7915777784
H -2.7832203995 3.1591719134 -5.7630605103
H -2.9075620891 2.9046582190 -4.0139034584
H -1.3391993984 -0.2140052965 -6.6376043444
H -2.0097631545 1.2852731284 -7.3007848523
H -0.4772310652 1.3236410849 -6.4105697460
H -4.8941059607 -1.2038267373 -5.5266312109
H -3.0828716785 -1.5299276336 -5.3279595624
H -5.4675032125 1.0413280215 -5.6414751239
