166
# extracted from Terachem optimization
Co 0.2303095537 0.1026785266 0.0301569993
N 0.5629199292 2.3668301313 -0.1270821084
C 1.8787433449 2.5202973473 -0.0774902462
S 2.3871243208 4.1781132533 -0.2731255334
C 0.7206924212 4.6704819029 -0.4566155553
C -0.0806975320 3.5404724519 -0.3369749788
H -1.1605442692 3.5460970916 -0.4162254633
N 2.2227156399 0.2062898635 0.1804945539
C 2.7679347929 1.3949143367 0.1141233108
C 4.2682693684 1.5699390625 0.1586539885
C 4.9550235985 0.5297235874 1.0706609127
C 4.3251151839 -0.8175224267 0.8073014593
C 3.0547992239 -0.9186359993 0.3844398595
H 4.7390764903 0.7899565245 2.1204564117
H 4.6447891635 1.4486572630 -0.8699694614
H 4.5407339804 2.5828536846 0.4683939346
H 2.5602574221 -1.8669962449 0.2212154742
H 4.9011745361 -1.7165277586 1.0055290707
C 6.4657740424 0.5506703942 0.8928649564
C 7.0645999363 0.0283484095 -0.2622703968
C 8.4468868966 0.0738190703 -0.4329026732
C 9.2709479495 0.6442389944 0.5465026128
C 10.7782356954 0.7422915722 0.3464670216
N 11.2552229723 -0.3938126562 -0.4508383765
C 11.1434959854 2.0460080967 -0.3833942053
C 8.6715711691 1.1564253626 1.7027759885
C 7.2879164505 1.1133869976 1.8744781062
H 6.4481362945 -0.4287947252 -1.0344067797
H 8.9114645949 -0.3461053076 -1.3192489713
H 11.2382382202 0.7853955537 1.3499514956
H 12.2412874279 -0.2663563706 -0.6718281152
H 11.1884268458 -1.2556912899 0.0890274722
H 10.7802199479 2.9189029156 0.1679153169
H 12.2317109621 2.1383453179 -0.4826211306
H 10.7038702236 2.0555003726 -1.3861605707
H 9.2933219003 1.5894104470 2.4831450208
H 6.8476977397 1.5137724337 2.7855344935
C 0.3270063952 6.0535553464 -0.6927230916
C 1.2472961788 7.0111636724 -1.1627301092
C 0.8589510072 8.3258988405 -1.3839093443
C -0.4635222850 8.7328167352 -1.1525841793
C -0.9048013591 10.1602781869 -1.4438125420
N 0.2070247237 11.0848198158 -1.2088712174
C -1.3581696225 10.2888748164 -2.9094420333
C -1.3800880966 7.7824526938 -0.6791290000
C -0.9990359166 6.4662605082 -0.4506115275
H 2.2737316401 6.7218251953 -1.3757602966
H 1.5733805955 9.0628180074 -1.7351765239
H -1.7828874185 10.3668567119 -0.8061704223
H -0.0358011808 12.0131139057 -1.5492427276
H 0.3910287939 11.1779400601 -0.2111351517
H -2.1610233500 9.5810551377 -3.1373007986
H -1.7341139554 11.3003919205 -3.1025033528
H -0.5169826298 10.0981282406 -3.5834513256
H -2.4047044613 8.0824121488 -0.4731265026
H -1.7254902835 5.7643256360 -0.0515790205
N 0.0017543241 -2.1550806632 0.3202229213
C -0.1734215092 -2.3155934766 1.6251111889
S -0.5024953369 -3.9671414333 2.0788541040
C -0.4213427625 -4.4476119669 0.4011560065
C -0.1313502020 -3.3199690110 -0.3592719772
H -0.0314229374 -3.3190864845 -1.4373806689
N 0.0681830946 -0.0094359126 2.0186678341
C -0.1123144291 -1.1972094558 2.5391872965
C -0.3286404632 -1.3744525118 4.0251270594
C 0.4777037041 -0.3585822259 4.8643493916
C 0.3708233463 0.9935269939 4.2015751427
C 0.1696161031 1.1070096125 2.8789727524
H 1.5405772361 -0.6516350670 4.8402276891
H -1.4025946540 -1.2258386592 4.2211595939
H -0.0952514794 -2.3954430793 4.3394285201
H 0.1316737682 2.0593051216 2.3675139573
H 0.5064912633 1.8869170881 4.8039650626
C 0.0307865181 -0.3733509327 6.3189938712
C -1.1496963892 0.2669757971 6.7210814001
C -1.5708898757 0.2218851382 8.0486610774
C -0.8265368853 -0.4706647927 9.0129959388
C -1.3091085594 -0.5688995492 10.4547867568
N -2.0249033007 0.6566966178 10.8293908810
C -2.2594478089 -1.7662306056 10.6259446993
C 0.3549984384 -1.1035507547 8.6108448389
C 0.7793422926 -1.0573554802 7.2827978208
H -1.7443744338 0.8162867582 5.9931828722
H -2.4736800486 0.7357647233 8.3626956822
H -0.4217729163 -0.7582609520 11.0848313082
H -2.4267971925 0.5468850290 11.7589102072
H -1.3750943798 1.4399007099 10.8860834512
H -1.7705899313 -2.7001537867 10.3314021732
H -2.5698298513 -1.8634411086 11.6732300348
H -3.1555771896 -1.6280684714 10.0121908499
H 0.9572441169 -1.6330306832 9.3456507336
H 1.7072958693 -1.5501443003 6.9993570543
C -0.6436926787 -5.8189380937 -0.0371019256
C -1.3543386449 -6.7375163197 0.7604665651
C -1.5717603737 -8.0386993644 0.3271866305
C -1.0928137885 -8.4702096192 -0.9186543775
C -1.3773116927 -9.8781534213 -1.4227853981
N -1.5021326975 -10.8014381535 -0.2925766763
C -2.6883926606 -9.8968483757 -2.2299850909
C -0.3764969196 -7.5598382067 -1.7102475327
C -0.1527364015 -6.2568707269 -1.2841854338
H -1.7620157610 -6.4243021511 1.7187522256
H -2.1139198585 -8.7463893762 0.9453033567
H -0.5596182442 -10.1490844310 -2.1143988951
H -1.8522417733 -11.7008550198 -0.6164701511
H -0.5916169640 -10.9769094239 0.1296795311
H -2.6457739121 -9.1920254206 -3.0659916781
H -2.8664412107 -10.8975185395 -2.6407040376
H -3.5333782116 -9.6308051804 -1.5868671083
H 0.0217788665 -7.8826895838 -2.6690721878
H 0.4333779192 -5.5860222917 -1.9056815899
N -1.7598917808 0.2544180031 -0.2187300613
C -2.0778894789 0.2204616949 -1.5110444857
S -3.7826650780 0.3641219556 -1.7968117345
C -4.0707400492 0.4565960437 -0.0719391231
C -2.8499439574 0.3874787600 0.5815557286
H -2.7196475990 0.4063535096 1.6544720218
N 0.1762734842 -0.0077206705 -1.9702557540
C -1.0250432606 0.0651745603 -2.4845834928
C -1.2742641351 -0.0898308837 -3.9633778250
C -0.0982458146 0.4438408716 -4.8134038520
C 1.1979083467 0.0240446056 -4.1590437177
C 1.2782513400 -0.1805961607 -2.8337222519
H -0.1270452867 1.5460421001 -4.7963802629
H -1.4062164185 -1.1649685325 -4.1659178936
H -2.2099184755 0.3936828650 -4.2609705910
H 2.2007640532 -0.4437287604 -2.3327919168
H 2.0889557396 -0.0669161195 -4.7730374208
C -0.2234107465 0.0023710810 -6.2640892355
C 0.0181290215 -1.3279703411 -6.6358256214
C -0.1226162970 -1.7356106168 -7.9605763715
C -0.5107601729 -0.8255787948 -8.9531260779
C -0.7124439477 -1.2769878043 -10.3941243486
N 0.2304348779 -2.3547392697 -10.7179206566
C -2.1450347163 -1.7964557489 -10.6039198899
C -0.7421323572 0.5035411908 -8.5814350652
C -0.6027568816 0.9133317366 -7.2549989962
H 0.3313765189 -2.0534627589 -5.8868166317
H 0.0831197292 -2.7608650621 -8.2508362415
H -0.5850263005 -0.3878695939 -11.0369645428
H 0.0259655586 -2.7205292426 -11.6463688276
H 1.1818274694 -1.9908276995 -10.7532650485
H -2.8824263404 -1.0301656755 -10.3452997838
H -2.3021959538 -2.0761543923 -11.6525205904
H -2.3218725924 -2.6794529584 -9.9811653725
H -1.0286820725 1.2308966626 -9.3376214077
H -0.7820151122 1.9544900846 -6.9941683139
C -5.4083862053 0.5815440467 0.4927110176
C -6.5497051281 0.1853069985 -0.2313831909
C -7.8191796601 0.3051051070 0.3190119302
C -7.9955974615 0.8173594586 1.6128535160
C -9.3804247131 0.9003466977 2.2406418354
N -10.3924571838 1.0923415662 1.1997753991
C -9.6951889594 -0.3972315212 3.0072551059
C -6.8601470150 1.2187661104 2.3326230208
C -5.5869618678 1.1063660107 1.7887545299
H -6.4423401588 -0.2442861530 -1.2247061136
H -8.6984870945 0.0079517467 -0.2424769711
H -9.3551118947 1.7222987035 2.9783564667
H -11.3236310569 0.9803331512 1.5956186465
H -10.3461597842 2.0379791633 0.8235514634
H -8.9430220733 -0.5951313086 3.7772013662
H -10.6701477704 -0.3163924699 3.5018272636
H -9.7263714495 -1.2469738927 2.3178572207
H -6.9784860341 1.6390621625 3.3283628794
H -4.7304668274 1.4571015472 2.3574712199
