142
# extracted from Terachem optimization
Co 0.0989618364 -0.0716821515 0.0169411195
O 0.0849613197 2.2115964059 0.0103648093
C 1.2357773797 2.8655396350 -0.5718579390
C 1.5450748714 4.1441531661 0.2258680017
C 0.3507727985 5.1228215043 0.2959955249
C -0.9084238802 4.3399876200 0.7281143972
C -1.0923994376 3.0541462778 -0.0716443378
H 0.5846416870 5.8524307817 1.0804215992
H 2.4126506929 4.6505396382 -0.2090292586
H 1.8321573634 3.8405706471 1.2406394218
H 0.9720229724 3.1271118856 -1.6091522018
H -1.9079678822 2.4487033320 0.3240704246
H -1.2975899740 3.2543136341 -1.1322404684
H -1.8129338001 4.9503913773 0.6190768226
H -0.8344760842 4.0840827179 1.7926697689
N 2.1302211392 0.5803844903 -0.3408373930
C 2.3921423017 1.8773499102 -0.6044847693
C 3.6797537214 2.3054735082 -0.9332375648
C 4.7537745223 1.4078146456 -0.9703743542
C 4.4645233342 0.0674813981 -0.6625436311
C 3.1611155118 -0.2930779299 -0.3651540604
H 3.8547509798 3.3517769715 -1.1601398285
H 2.9083705963 -1.3211935354 -0.1341731936
H 5.2519150841 -0.6768232516 -0.6914772516
C 6.1504576156 1.8826278339 -1.2971251315
C 6.8466174754 1.1902292368 -2.5022967085
N 7.1602842087 -0.2010058437 -2.1578769512
C 6.0084985273 1.2352916776 -3.7811393608
H 6.1295244846 2.9613009034 -1.4865882542
H 6.7844834973 1.7386440516 -0.4110724678
H 7.7620673055 1.7788145077 -2.6798884616
H 7.4533065655 -0.7229250714 -2.9820241442
H 7.9266693473 -0.2490978512 -1.4874121881
H 5.7371481229 2.2655675315 -4.0342856767
H 6.5749598957 0.8298152002 -4.6265085879
H 5.0913883784 0.6449972616 -3.6745218403
C 0.1484659278 5.9381798401 -1.0029092961
C -0.6481986844 7.2463966718 -0.7972629272
N 0.0852075180 8.1331683155 0.0923526286
C -0.9711825883 7.9248636273 -2.1498181493
H 1.1283928660 6.2033039848 -1.4250188585
H -0.3627453624 5.3500978559 -1.7758425644
H -1.5945618010 7.0204738023 -0.2910760533
H 0.9559465537 8.5051453978 -0.2808464822
H -0.4597668343 8.8624282772 0.5438321799
H -1.5843444825 7.2607853555 -2.7697954533
H -1.5251772207 8.8554008187 -1.9965626206
H -0.0510906486 8.1563315273 -2.6981374855
O 0.5443025470 -2.1607604313 0.2141054304
C 0.5266189856 -2.6844802999 1.5705368729
C 1.5811609784 -3.7925813559 1.6926869539
C 1.3616826963 -4.9350663282 0.6731082963
C 1.1991374450 -4.3235384219 -0.7357107604
C 0.1927145916 -3.1786466727 -0.7655996424
H 2.2702221010 -5.5481312524 0.6703850627
H 1.5682166603 -4.2011332648 2.7081985316
H 2.5700957786 -3.3405127735 1.5453121850
H -0.4763012184 -3.1119217963 1.7304135817
H 0.1934979592 -2.6681383193 -1.7302664803
H -0.8286461504 -3.5192750185 -0.5491042227
H 0.8838480220 -5.0795727289 -1.4643455802
H 2.1679764234 -3.9445719552 -1.0839436884
N 0.4380018067 -0.2823034424 2.0750821980
C 0.6987148993 -1.5218443857 2.5397888435
C 1.0593848939 -1.7292316064 3.8709337368
C 1.1761828327 -0.6528702596 4.7621454969
C 0.9053624532 0.6286560735 4.2512672671
C 0.5494377397 0.7643053614 2.9199020021
H 1.2617600731 -2.7338447430 4.2251313375
H 0.3525602160 1.7343864399 2.4758782397
H 0.9541602325 1.4905233314 4.9067793228
C 1.6108448758 -0.8761644533 6.1914241863
C 0.6301418364 -0.3828048822 7.2924943108
N 0.5866189230 1.0849957002 7.2883996226
C -0.7812674586 -0.9485944634 7.1274636412
H 1.7989815968 -1.9435927262 6.3501193733
H 2.5729776584 -0.3678606240 6.3440624217
H 1.0396865594 -0.7765100383 8.2371793842
H -0.1743261530 1.4210273236 7.8768077924
H 1.4458334559 1.4708285109 7.6793203211
H -0.7608309359 -2.0426721216 7.0857897999
H -1.4101282413 -0.6648837391 7.9782796663
H -1.2568352689 -0.5695409204 6.2155143037
C 0.2067091940 -5.8788434956 1.0796751190
C 0.2281123773 -7.2558701336 0.3802469536
N 1.4731446939 -7.9448338365 0.6883766384
C -1.0142926744 -8.0924088658 0.7634325121
H 0.2528966441 -6.0538173544 2.1646182125
H -0.7741854817 -5.4223659288 0.8932513309
H 0.2194423062 -7.1136646019 -0.7076059551
H 1.5836456738 -8.2099136641 1.6650425933
H 1.6959460765 -8.7281357726 0.0801652418
H -1.9324905912 -7.5713100228 0.4680824877
H -0.9998775712 -9.0642953555 0.2614119698
H -1.0495701285 -8.2655460248 1.8451594991
O -2.0758398796 -0.3279964479 0.0960387987
C -2.8245531128 -0.4961084483 -1.1293143623
C -4.0251174597 0.4660185996 -1.1503697559
C -4.9426503148 0.3338827751 0.0867079436
C -4.0663790839 0.3614750264 1.3585195846
C -2.8880379696 -0.5994897667 1.2723560882
H -5.5902966698 1.2181689643 0.1030183299
H -4.6003378728 0.2941696227 -2.0663529507
H -3.6351098805 1.4894385166 -1.2145153844
H -3.1852755893 -1.5364399979 -1.1503310434
H -2.2078671285 -0.4838571307 2.1155323987
H -3.2154200892 -1.6469352546 1.2261124934
H -4.6511369414 0.1107495427 2.2510513877
H -3.6809500316 1.3761744342 1.5183989570
N -0.5809308750 -0.0263601023 -2.0200050855
C -1.8743982245 -0.2876104558 -2.2959817263
C -2.3417400491 -0.3748437646 -3.6080785438
C -1.4826237999 -0.1687673973 -4.6939870139
C -0.1401386414 0.1210186917 -4.3876701571
C 0.2582773494 0.1732918637 -3.0627129373
H -3.3877068554 -0.6033180448 -3.7895311829
H 1.2898022819 0.3791103626 -2.8003761283
H 0.5765616054 0.2566537412 -5.1893254167
C -1.9925499161 -0.2405303813 -6.1133480218
C -1.3077070133 -1.2933586543 -7.0307032033
N 0.0803613395 -0.8841183921 -7.2902862454
C -1.3329292764 -2.7015066683 -6.4351195193
H -3.0694399190 -0.4407323752 -6.0997099154
H -1.8655851623 0.7459070434 -6.5802480391
H -1.9132402268 -1.3088061238 -7.9514288616
H 0.5887401479 -1.6433941365 -7.7419318304
H 0.0976692881 -0.1054056598 -7.9489555540
H -2.3551299901 -3.0029840043 -6.1827087277
H -0.9452584534 -3.4298272254 -7.1557583671
H -0.7142997966 -2.7604016718 -5.5318057782
C -5.8914590288 -0.8856621653 0.0172952929
C -7.1043858440 -0.7901713969 0.9675639405
N -7.8931523900 0.3911303490 0.6389093547
C -7.9481177660 -2.0847427442 0.9356417786
H -6.2728327333 -0.9865559407 -1.0092570975
H -5.3647594341 -1.8240623962 0.2340642628
H -6.7488163060 -0.6430915313 1.9950944013
H -8.3600705908 0.3444169621 -0.2648431303
H -8.5533308527 0.6756119488 1.3578173960
H -7.3441446409 -2.9457126302 1.2448203998
H -8.8014018924 -2.0069807392 1.6157258466
H -8.3302603579 -2.2773951783 -0.0734518662
