88
# extracted from Terachem optimization
Co 0.0219795893 -0.0335571014 0.0065786880
N 0.5472706785 2.0375284573 -0.2128165229
C 1.8111118687 2.3281793321 -0.0323844044
C 2.0623042904 3.7909937116 -0.2691153620
C 0.6804678440 4.2881736681 -0.6226129676
C -0.1454595746 3.2105485518 -0.5728958867
H -1.2025523037 3.1776283135 -0.7827630927
H 2.7859525392 3.9557288127 -1.0809013319
H 2.4800133288 4.2912074282 0.6167365835
N 2.2060740661 0.0183211792 0.3383930568
C 2.7466599701 1.2663202817 0.3213361392
C 4.0896248877 1.4963626555 0.6368555183
C 4.9235346089 0.4241607302 0.9764432264
C 4.3552526232 -0.8569180252 0.9697061838
C 3.0056688394 -1.0077527070 0.6525219802
H 4.4801294481 2.5095516037 0.6309842959
H 2.5419463827 -1.9890013985 0.6506017332
H 4.9452686328 -1.7319201201 1.2154110926
C 6.3570287279 0.6367299805 1.3800903140
C 6.6699775758 0.0981955359 2.7836326613
O 5.9113034252 -0.5917552404 3.4210036601
H 7.0444513202 0.1185056447 0.6935267076
H 6.6420874444 1.6947423022 1.3438472620
H 7.6665255392 0.3785052467 3.1751808215
C 0.3779751284 5.7152829540 -0.9523447042
C -0.9923936577 6.0037079491 -1.5527449539
O -1.8917693656 5.1976411129 -1.6344600611
H 0.4490329525 6.3449713678 -0.0479879270
H 1.1435707451 6.1329382366 -1.6233650055
H -1.1224611717 7.0441140864 -1.9079817121
N -0.3189972619 -2.1294849222 0.4075916295
C -0.5679669888 -2.4251976721 1.6616809171
C -0.8697269666 -3.8897899458 1.8159140961
C -0.7441759278 -4.3820172695 0.3951237040
C -0.4247262354 -3.2972063401 -0.3653954893
H -0.2815719675 -3.2568414720 -1.4336744581
H -1.8747008417 -4.0602366060 2.2293940409
H -0.1710688439 -4.3911525784 2.5017356697
N -0.3106468424 -0.1230361571 2.1926124930
C -0.5463605776 -1.3746950505 2.6706897862
C -0.7437438468 -1.6207918505 4.0344537724
C -0.7131487011 -0.5630193087 4.9507026119
C -0.4799300232 0.7205313154 4.4394968214
C -0.2806180520 0.8875167761 3.0673155127
H -0.9145804648 -2.6358769669 4.3798758690
H -0.0938966627 1.8727881704 2.6517285005
H -0.4514880062 1.5861136543 5.0899712925
C -0.8889427778 -0.7992471426 6.4265283716
C 0.2691000161 -0.2515689522 7.2713615487
O 1.1250987485 0.4824703175 6.8398205725
H -1.7984280408 -0.3032075657 6.8006996646
H -1.0158509376 -1.8630039896 6.6590694355
H 0.2585921254 -0.5653720006 8.3327631977
C -0.9474874521 -5.8018991111 -0.0198772027
C -1.3353488014 -6.0303718586 -1.4814372695
O -1.3038092305 -5.1796485480 -2.3406367179
H -0.0223134793 -6.3853059943 0.1341991625
H -1.6877421104 -6.3009980742 0.6210719534
H -1.6414202729 -7.0693553814 -1.7091097046
N -2.0640891108 0.1848445762 -0.6172297334
C -2.2960328863 0.0711043809 -1.9087848306
C -3.7609813474 0.2316241039 -2.2054563899
C -4.3280006115 0.4715812923 -0.8301141694
C -3.2707487118 0.4195699888 0.0413547333
H -3.2970377294 0.5126679070 1.1164304429
H -4.1887087877 -0.6648197145 -2.6783430501
H -3.9602466021 1.0656930521 -2.8942385393
N 0.0258366773 -0.2945918157 -2.2221003783
C -1.1920469479 -0.1740544483 -2.8181658607
C -1.3537638573 -0.2615285257 -4.2081650307
C -0.2449303496 -0.4902327823 -5.0296922736
C 0.9986824784 -0.6258576157 -4.3986102581
C 1.0830912157 -0.5150308619 -3.0061516019
H -2.3402863965 -0.1415300428 -4.6456715170
H 2.0406976094 -0.6067369113 -2.5035935318
H 1.8990875186 -0.8150432607 -4.9707533036
C -0.3652438450 -0.5363959163 -6.5284547242
C 0.5312965299 0.4978111932 -7.2223541495
O 1.3757137303 1.1410256252 -6.6459206978
H -0.0649576989 -1.5201431023 -6.9212314290
H -1.3977447327 -0.3845765064 -6.8644049575
H 0.3612019129 0.6087709015 -8.3100180725
C -5.7706450566 0.7083415218 -0.5492725515
C -6.2665830237 0.2904692168 0.8422258044
O -5.5445274252 0.0784796813 1.7862005548
H -5.9974461448 1.7887259709 -0.6103313996
H -6.4084427248 0.2498284703 -1.3158999999
H -7.3680746743 0.2246910295 0.9266371770
