121
# extracted from Terachem optimization
Co 0.1716213566 0.1114751607 0.1346539735
O 0.3479309199 2.2714880517 0.0325598652
C 1.6727882454 2.7612608760 -0.4018064637
N 2.0302779685 3.8234083486 0.4799869480
C 0.7534439951 4.5280518353 0.6917203032
C -0.3009970998 3.3892739104 0.7121813349
H -0.5470792482 3.0630305280 1.7262585609
H -1.2093430995 3.6461103445 0.1634569036
H 0.5593475089 5.1767749448 -0.1661129758
H 2.3153886405 3.4455777774 1.3890022156
H 1.5333445823 3.1647275318 -1.4150078548
N 2.2681990396 0.4009020349 -0.1864261997
C 2.6365038965 1.6191087785 -0.4369483111
C 4.0796854746 1.6941524691 -0.8341777260
C 4.4929643231 0.2465873729 -0.7447336474
C 3.4012964622 -0.4462676294 -0.3542512282
H 3.2932419201 -1.5091054265 -0.1800561296
H 4.1779899069 2.0782738793 -1.8596787876
H 4.6505588435 2.3789376872 -0.1926896629
C 5.8638233742 -0.2919924709 -1.0893849483
N 6.8893824449 0.0575958859 -0.1173538922
C 6.3211559367 0.1749594358 -2.4862080590
N 5.2783690206 -0.0728725505 -3.4917585837
H 5.7942681436 -1.3879744367 -1.0943645002
H 7.1686701466 1.0338584689 -0.1046737389
H 6.7398725765 -0.2961862328 0.8213775704
H 6.5040076984 1.2570024101 -2.4525494343
H 7.2881664559 -0.3023367280 -2.6962957602
H 5.5391580886 0.4005619096 -4.3560322289
H 5.2695159249 -1.0657100146 -3.7267438651
C 0.8193261678 5.4013658734 1.9580152939
N 1.1997124547 4.5758377659 3.1253786166
C -0.4898631467 6.1769371263 2.1968573300
N -0.9499521529 6.8394676181 0.9769959408
H 1.6239294310 6.1241365486 1.7742929667
H 0.4285727136 4.5246666561 3.7890314578
H 1.9694447917 5.0077845508 3.6309490165
H -1.2697613849 5.4634048726 2.5019592735
H -0.3312323955 6.8516273902 3.0548052957
H -1.8764168623 7.2370485235 1.1208168918
H -0.3426840376 7.6268863557 0.7509614189
O -0.1253103962 -2.0150645716 0.3575894297
C -0.5095417277 -2.3930087020 1.7398462799
N 0.1413788135 -3.6258264166 2.0301743907
C 0.1183895544 -4.3492681804 0.7484396639
C 0.3483721856 -3.2290989506 -0.2988465404
H 1.4077455021 -3.0968315998 -0.5375858189
H -0.2235771886 -3.3752499238 -1.2174513399
H -0.8736223721 -4.7856742787 0.5980606756
H 1.1294467687 -3.4704523770 2.2557126988
H -1.5985193458 -2.5397198762 1.7182022627
N 0.1686215861 -0.0982764809 2.2395373254
C -0.1525562035 -1.2796119932 2.6736418970
C -0.1408015081 -1.3442508301 4.1692787611
C 0.3127427163 0.0473437055 4.5277963474
C 0.4707416620 0.7214679011 3.3656983734
H 0.7738601942 1.7500268014 3.2068907224
H -1.1542465808 -1.5259889048 4.5584037883
H 0.4873232039 -2.1608229221 4.5487130743
C 0.5375785057 0.5640576039 5.9333248615
N 1.8276766991 0.1557487506 6.4739490710
C -0.5743544922 0.1260047653 6.9107294623
N -1.9017097358 0.3877421947 6.3493755743
H 0.5538204744 1.6601508695 5.8842837035
H 1.9373395504 -0.8389339123 6.6470255851
H 2.6420395256 0.5448815380 6.0114444297
H -0.4874324607 -0.9554594103 7.0785893751
H -0.3759927188 0.6111743444 7.8761407674
H -2.6071772662 -0.1028480447 6.8962266842
H -2.1287297570 1.3780066418 6.4327324183
C 1.1569854645 -5.4880003773 0.7744189358
N 2.4910575742 -4.9404471205 1.0659447325
C 1.1185917450 -6.3567247285 -0.5010217721
N -0.2322915832 -6.8099268823 -0.8016706166
H 0.8684443000 -6.1154051001 1.6262759657
H 3.0500758811 -4.8623717796 0.2177375705
H 3.0079366131 -5.5585248010 1.6866885158
H 1.4718809952 -5.7638371105 -1.3560531840
H 1.8425596705 -7.1783493519 -0.3685746466
H -0.3145948337 -7.1867338252 -1.7425117235
H -0.5557250334 -7.5226637095 -0.1503743213
O -2.0326995670 0.1304227521 -0.0534104689
C -2.4871670984 -0.3277006475 -1.3859472856
N -3.6061360693 0.4764877591 -1.7487757817
C -4.3075966574 0.6928103838 -0.4734960959
C -3.1482976404 0.8537677487 0.5448364100
H -2.8458700688 1.8976292927 0.6614133253
H -3.3638161715 0.4121232166 1.5201823537
H -4.8869143574 -0.2017754959 -0.2248594928
H -3.2991273067 1.4012065455 -2.0685998525
H -2.8096296860 -1.3695204931 -1.2449042001
N -0.1195369588 -0.1355161080 -1.9827949991
C -1.3528666661 -0.2852108867 -2.3613658224
C -1.4620800380 -0.4890721519 -3.8417960271
C -0.0192224374 -0.3905011771 -4.2655486527
C 0.7070170327 -0.1886947868 -3.1412382662
H 1.7814942186 -0.0985735490 -3.0326276409
H -1.8594107982 -1.4896756680 -4.0686372857
H -2.1454508624 0.2293699120 -4.3134782262
C 0.4929293729 -0.5105109610 -5.6851908064
N 0.3231983702 0.7295663029 -6.4292416496
C -0.1785952103 -1.6637101661 -6.4630190786
N -0.1592864319 -2.9009872490 -5.6803601323
H 1.5722485500 -0.6996222143 -5.6344147532
H -0.6329028331 1.0128027074 -6.6202533852
H 0.9010483660 1.5110436597 -6.1405095661
H -1.2273369893 -1.3990154366 -6.6501517253
H 0.3097829756 -1.7297759924 -7.4447610719
H -0.7972646956 -3.5785019922 -6.0942444137
H 0.7649746308 -3.3286133071 -5.7229952158
C -5.2761035386 1.8854647067 -0.6044951302
N -4.5326499214 3.0855876616 -1.0129051721
C -6.1331330045 2.0963053333 0.6634747536
N -6.8238898121 0.8788707213 1.0554124326
H -5.9466645812 1.6198579836 -1.4306355878
H -4.3495312007 3.6970724131 -0.2193996966
H -5.0659659065 3.6375610339 -1.6801437891
H -5.4862402280 2.4018724953 1.4969803352
H -6.8143404067 2.9419727081 0.4675259594
H -7.1823805533 0.9099482030 2.0059065191
H -7.5873377700 0.6352685228 0.4281060612
