139
# extracted from Terachem optimization
Co 0.0357522739 -0.2914644389 0.0451413574
O 0.4266884725 1.9522369212 0.0775122840
C 1.8088997313 2.2627296262 -0.2367191538
S 2.0375199234 2.5000634722 -2.0270326369
C 0.9846361425 4.0326785144 -2.1176503451
C -0.2539289948 3.8523258309 -1.2780350294
C -0.4916014231 2.9223022287 -0.3510053171
H 1.5922670404 4.8528166344 -1.7168268917
H -1.4279463854 2.8253729661 0.1833672333
H -1.0659558537 4.5515295161 -1.4529735660
H 2.0423476151 3.2015794212 0.2762480938
O 2.1504120780 -0.1405396918 -0.0198890523
C 2.6723612640 1.1733683838 0.3885682248
S 4.4129023055 1.3925336145 -0.0544312108
C 5.0498420557 0.0338047518 1.0385093754
C 4.1980900748 -1.1886673758 0.8150358287
C 2.9582557027 -1.2390838030 0.3265477031
H 4.9650452438 0.3830551927 2.0762031685
H 2.4252682497 -2.1573375826 0.1203458281
H 4.6545854089 -2.1537076092 1.0147923748
H 2.5544483446 1.1995645805 1.4764614011
C 6.5481699069 -0.1797108766 0.7102391312
C 7.4114638343 -0.7044446933 1.8810174979
C 6.9928100317 -2.0882813158 2.4015200129
C 8.8879915582 -0.7131938649 1.4553234607
H 6.9722271945 0.7844757457 0.4024763418
H 6.6376873349 -0.8436097551 -0.1593720100
H 7.3042181168 0.0137808403 2.7082832697
H 7.0157442750 -2.8387982980 1.6003459987
H 7.6847482268 -2.4247850497 3.1804183889
H 5.9899700138 -2.0874919526 2.8461896828
H 9.2181491540 0.2787277744 1.1273538766
H 9.5292736582 -1.0197608755 2.2879914605
H 9.0578974945 -1.4143015511 0.6287970466
C 0.6897168116 4.3138494317 -3.6132657665
C 0.4258969598 5.7921174904 -4.0029890877
C -0.8262991611 6.4097126628 -3.3612182571
C 1.6584450427 6.6834533378 -3.7846663180
H 1.5569812916 3.9804671206 -4.1975319406
H -0.1544568847 3.6883109533 -3.9305838501
H 0.2430043900 5.7520220876 -5.0856404685
H -0.6908054992 6.6007079524 -2.2890246556
H -1.0498721888 7.3766107162 -3.8239297713
H -1.7107103107 5.7739345739 -3.4930807415
H 2.5478118194 6.2703756514 -4.2740265136
H 1.4844889428 7.6816488674 -4.1992808211
H 1.8888842818 6.8178772822 -2.7199205283
O 0.0091554798 -2.4784010132 0.3278621683
C -0.2122727744 -2.8664900311 1.7136613387
S -1.9708559293 -3.1799718379 2.0552522263
C -2.0965254507 -4.6420870303 0.9158942531
C -1.3410811956 -4.3776617186 -0.3583179557
C -0.4587716867 -3.4113202588 -0.6119620879
H -1.6520740315 -5.4994478641 1.4364784677
H 0.0284522426 -3.2634982481 -1.5676326230
H -1.5462340174 -5.0570574147 -1.1836742082
H 0.3463109170 -3.7957411676 1.8668460837
O 0.0012282310 -0.4658685885 2.1123391289
C 0.4322437637 -1.7941853357 2.5868070477
S 0.0448982420 -2.0566200614 4.3328874019
C 1.1536052508 -0.7133146749 4.9747342288
C 0.9321464963 0.5252174182 4.1471361652
C 0.4061108967 0.6126794140 2.9254381051
H 2.1882103424 -1.0672097901 4.8727571576
H 0.2187730946 1.5425928490 2.4072821752
H 1.1778314282 1.4767716871 4.6095250791
H 1.5153729412 -1.8074311932 2.4317636876
C 0.8426508186 -0.5235041295 6.4805804733
C 2.0237845440 -0.0186147663 7.3417485938
C 2.5486580431 1.3693941520 6.9423755861
C 1.6092789820 -0.0316961408 8.8215288023
H 0.5355468602 -1.4937683373 6.8912585976
H -0.0234481341 0.1419458671 6.5899467795
H 2.8464106856 -0.7392067866 7.2164662391
H 1.7507525981 2.1228018363 6.9783051350
H 3.3304498529 1.6918993663 7.6376291514
H 2.9918780567 1.3819034180 5.9390093782
H 1.2775089648 -1.0268172007 9.1380942261
H 2.4488679005 0.2589762370 9.4611277028
H 0.7888851812 0.6720322412 9.0092214167
C -3.5819179521 -4.9456035171 0.6311596583
C -4.4594095671 -5.2718171506 1.8566099542
C -5.9161287311 -5.4588361169 1.4047376999
C -3.9638693786 -6.5050261027 2.6273623552
H -4.0119894222 -4.0955006116 0.0847810720
H -3.6027339312 -5.8031825655 -0.0568154606
H -4.4322368320 -4.4092978999 2.5404024256
H -6.0110059447 -6.3159884465 0.7266949931
H -6.5679529250 -5.6437765650 2.2643591404
H -6.2948166205 -4.5725551987 0.8815666314
H -2.9620794658 -6.3639314392 3.0498667698
H -4.6351344365 -6.7258134418 3.4633010799
H -3.9395522077 -7.3908129256 1.9803133667
O -1.9376852148 0.0410480338 -0.1674103084
C -2.4397528631 -0.0942275613 -1.5523651869
S -3.8554608308 1.0012873550 -1.8458470327
C -4.9758325570 0.2720225291 -0.5593248993
C -4.2068313414 0.0976552518 0.7206048484
C -2.8875737785 0.0153200231 0.8709572588
H -5.2992477091 -0.7023723412 -0.9446322892
H -2.3833059283 -0.0798467052 1.8214428719
H -4.7796442153 0.0538255092 1.6418551282
H -2.7122841240 -1.1473998992 -1.6729995537
O -0.0798001258 -0.3571358048 -1.9519995735
C -1.2894841329 0.3153465886 -2.4775339989
S -1.5992833337 0.0328638528 -4.2433545019
C -0.9084164937 -1.7017706446 -4.4045125346
C 0.5016685669 -1.6459359393 -3.8896375633
C 0.8510774071 -0.9939450056 -2.7834613914
H -1.5360823364 -2.3557142982 -3.7859745113
H 1.8569005443 -0.8373582998 -2.4193696129
H 1.3013158474 -2.0656279285 -4.4916117557
H -1.0960492575 1.3837931765 -2.3565153070
C -1.0399509357 -2.1144859911 -5.8843828348
C -1.0577635987 -3.6398601546 -6.1419597260
C 0.2119819088 -4.3682580048 -5.6753381347
C -1.3068470579 -3.8983504721 -7.6360170479
H -1.9783517175 -1.7052894316 -6.2780456002
H -0.2321718000 -1.6422320135 -6.4587025242
H -1.9109345461 -4.0540807465 -5.5824467348
H 1.1056666751 -3.9662831092 -6.1701823059
H 0.1528550925 -5.4323801135 -5.9262995166
H 0.3639942433 -4.3002699076 -4.5909999800
H -2.2337562364 -3.4256213441 -7.9791149819
H -1.3857671501 -4.9720508920 -7.8352505279
H -0.4833409605 -3.5075780188 -8.2461791477
C -6.2103641888 1.1988477590 -0.4234173258
C -7.5327141915 0.5024609209 -0.0102135481
C -7.4733863522 -0.2027864590 1.3535992368
C -8.0580079860 -0.4410760252 -1.1029275652
H -6.3904018863 1.6852674622 -1.3906377131
H -5.9700370538 2.0013833365 0.2844347070
H -8.2558424614 1.3240783314 0.0832514463
H -6.8321270030 -1.0936560774 1.3285411427
H -8.4723379435 -0.5395330420 1.6494272500
H -7.1078146928 0.4648023860 2.1435795777
H -8.1511815344 0.0715883110 -2.0670146383
H -9.0482023028 -0.8237666968 -0.8344230251
H -7.4073641136 -1.3139185882 -1.2460361667
