178
# extracted from Terachem optimization
Co -0.0031168120 -0.2279943941 -0.2490760999
O 0.0306458319 2.2023180659 -0.2258765487
C 1.3010602800 2.5141719311 -0.8863385175
O 1.6942030402 3.8156441069 -0.7388722233
C 1.6618995366 4.3221474481 0.6335154299
C 0.2103678790 4.2353603433 1.0298661270
C -0.5056003911 3.2101880085 0.5627713263
H 2.2559318720 3.6400725525 1.2565667589
H -1.5645544371 3.0508896370 0.7279459497
H -0.2810299938 4.9773761740 1.6426437793
H 1.1034881466 2.3790250064 -1.9543717963
N 1.9180996245 0.2387253441 -0.1468861861
C 2.3363072847 1.4992470071 -0.4049221717
C 3.6706007734 1.8757804233 -0.3082716314
C 4.6408584509 0.9419458489 0.0785110117
C 4.1914914615 -0.3568775108 0.3503295282
C 2.8439559913 -0.6688140284 0.2258447768
H 3.9057718355 2.9178249306 -0.5027148388
H 2.4846445580 -1.6717571858 0.4287188391
H 4.8962852668 -1.1089183843 0.6826160520
C 6.1276281615 1.3178865861 0.2333674261
N 6.1656977254 2.7295195105 0.6782851518
N 6.6642909460 0.4631417558 1.2880919944
C 6.9281987184 1.0409589145 -1.1263258326
C 6.8905916547 -0.4528799540 -1.5106048531
C 6.3315193761 1.8595649285 -2.2896913776
C 8.4067896478 1.4638396266 -0.9622492527
H 7.1158772980 2.9513729729 0.9700365970
H 5.9414590538 3.3748049849 -0.0783283637
H 7.6794463403 0.5138580263 1.3135928035
H 6.3283042252 0.8035428394 2.1887597046
H 5.8762010470 -0.7861880116 -1.7562612654
H 7.5091682803 -0.6184015821 -2.3994177312
H 7.2749329828 -1.0896298739 -0.7091082540
H 6.3550748119 2.9396733938 -2.1044089409
H 6.9158123568 1.6815146388 -3.1981763289
H 5.2967277903 1.5739762618 -2.5093331882
H 8.5112599814 2.5187195728 -0.6890699279
H 8.9476773521 0.8592074959 -0.2254848487
H 8.9267266984 1.3260459365 -1.9154893177
C 2.4322640176 5.6970604895 0.5806282552
N 3.8145057298 5.2785151567 0.2534210319
N 2.0227245575 6.5313135946 -0.5380817012
C 2.3479714117 6.5394091992 1.9297049306
C 1.0690706457 7.4072076408 2.0165505412
C 2.4303918529 5.6168414328 3.1652291109
C 3.5381922171 7.5257185548 1.9796755744
H 4.3153624063 6.1107441904 -0.0533281302
H 4.2891793480 4.9369737992 1.0888271593
H 2.0912374602 5.9899478328 -1.3970941751
H 1.0586574082 6.8379326218 -0.4435393505
H 0.1361841282 6.8470820749 1.9037496146
H 1.0272133284 7.8979020776 2.9947834726
H 1.0816512771 8.1977503934 1.2604406102
H 3.3056048951 4.9547304994 3.1310319674
H 2.5258422264 6.2221688865 4.0727105575
H 1.5390411939 4.9906888711 3.2883086310
H 4.4984427548 7.0183438988 2.1161542631
H 3.5880756747 8.1304591938 1.0689360596
H 3.4147385230 8.2086853162 2.8271243912
O -0.0185011691 -2.5461696288 -0.0647787975
C -0.6995933907 -2.7943335332 1.2193350681
O -0.5157799250 -4.0623131644 1.6939009442
C 0.8702551650 -4.5239713885 1.7508775056
C 1.3543243589 -4.4748021226 0.3254318930
C 0.8821045363 -3.5204791492 -0.4779129680
H 1.4420394350 -3.8062229271 2.3545655125
H 1.1298485610 -3.4020658105 -1.5266789053
H 2.0591403191 -5.1866887769 -0.0792101330
H -1.7642123284 -2.7008714682 0.9872774477
N -0.0621687004 -0.4537731310 1.7229412719
C -0.2908640122 -1.6987613096 2.2008452544
C -0.2387201771 -1.9985253640 3.5568328948
C 0.0735806517 -0.9999947620 4.4880076746
C 0.3151440590 0.2823666302 3.9791372610
C 0.2421532514 0.5135761453 2.6119954101
H -0.4085877935 -3.0312501065 3.8446141255
H 0.4334522522 1.4953245648 2.1968526610
H 0.5903802886 1.0827757843 4.6546169303
C 0.1885238623 -1.2940658700 5.9964895740
N 0.6856142598 -2.6831744874 6.1235992424
N 1.1919605359 -0.3731109921 6.5233019658
C -1.2077272235 -1.0314328104 6.7353175762
C -1.6282068362 0.4501561562 6.6397097998
C -2.3265478402 -1.8958377209 6.1181802051
C -1.0895839333 -1.4091655487 8.2301549485
H 0.9640594565 -2.8379062580 7.0908697397
H -0.0404205968 -3.3699073487 5.9220414997
H 1.1781447912 -0.3652241348 7.5399215152
H 2.1163893381 -0.6982877260 6.2410968969
H -1.8269775709 0.7527218725 5.6055296797
H -2.5531993922 0.6048231817 7.2056279450
H -0.8661465042 1.1184587851 7.0497416264
H -2.1082158606 -2.9691050277 6.1642889027
H -3.2569876962 -1.7381055622 6.6729442777
H -2.5239103080 -1.6330744209 5.0730621450
H -0.8162229127 -2.4593018285 8.3751785030
H -0.3718225077 -0.7868481260 8.7768786276
H -2.0591641932 -1.2608590670 8.7160627786
C 0.8101695797 -5.8750125891 2.5680353234
N 0.4331606487 -5.4115666875 3.9223612077
N -0.2839440874 -6.7379158855 2.1526655665
C 2.1690778322 -6.7042268966 2.5542064231
C 2.3057355670 -7.6046475968 1.3019892022
C 3.3935610993 -5.7692854033 2.6585164535
C 2.1856747330 -7.6594850939 3.7704626233
H 0.1175070568 -6.2287239018 4.4422228195
H 1.2493378591 -5.0452907954 4.4114715751
H -1.1520987393 -6.2078102421 2.1769335746
H -0.1555904900 -7.0756398584 1.2030209435
H 2.1984529212 -7.0757014898 0.3502902123
H 3.2954788074 -8.0736129172 1.2953010965
H 1.5676906259 -8.4119606422 1.3221392467
H 3.3230236446 -5.0868298141 3.5157608762
H 4.3013112192 -6.3647666286 2.8017857513
H 3.5464601001 -5.1628797881 1.7585807191
H 2.2912286591 -7.1271807453 4.7212990694
H 1.2757154552 -8.2661940591 3.8071737067
H 3.0389453720 -8.3414629602 3.6894897169
O -1.9986190584 -0.5779141531 -0.3966569561
C -2.3173213881 -1.1681983172 -1.7313474471
O -3.6185974889 -0.9920900182 -2.0759262433
C -4.0761329695 0.3975287365 -2.0817735838
C -3.9205593589 0.8491712408 -0.6527990032
C -2.9289818572 0.3528095011 0.0869130548
H -3.3972690396 0.9769745847 -2.7200250364
H -2.7493863611 0.5637454742 1.1338329791
H -4.5949657730 1.5557006974 -0.1893014077
H -2.1646678194 -2.2404755982 -1.5799168603
N -0.0873711299 -0.2983581120 -2.2373261717
C -1.2995981293 -0.6408877420 -2.7246166546
C -1.6005477305 -0.6359346805 -4.0801217832
C -0.6172274594 -0.2811071528 -5.0119751920
C 0.6533796750 0.0181785362 -4.5022286850
C 0.8772043221 0.0000937487 -3.1318384560
H -2.6178585244 -0.8747862722 -4.3711523333
H 1.8504114219 0.2392600895 -2.7212820772
H 1.4476955052 0.3012429467 -5.1817826931
C -0.9170141549 -0.1847202233 -6.5208588525
N -2.3219033775 0.2706016823 -6.6414343034
N -0.0283941759 0.8439143057 -7.0515567235
C -0.6166956668 -1.5740287442 -7.2559611566
C 0.8750149164 -1.9551504091 -7.1537764114
C -1.4533635455 -2.7142074928 -6.6395283193
C -0.9927842147 -1.4658825970 -8.7516645811
H -2.4778666247 0.5846118425 -7.5973671218
H -2.9859522172 -0.4858092844 -6.4798535534
H -0.0177701891 0.8271625436 -8.0679785017
H -0.3762197205 1.7605979314 -6.7711769306
H 1.1786138467 -2.1462353146 -6.1183682925
H 1.0567806311 -2.8757830575 -7.7186454883
H 1.5247331726 -1.1760804929 -7.5617804099
H -2.5324746873 -2.5273724959 -6.6918072467
H -1.2678514207 -3.6410745546 -7.1915672072
H -1.1895111401 -2.9032963152 -5.5930651406
H -2.0458934482 -1.2055752842 -8.9000253194
H -0.3779403323 -0.7420099141 -9.2986308835
H -0.8310608332 -2.4347812233 -9.2346842366
C -5.4788188680 0.3604982030 -2.8099403097
N -5.0992031722 -0.0175932834 -4.1883128941
N -6.3296786813 -0.7222539203 -2.3477057608
C -6.2796182758 1.7338160281 -2.7385884625
C -7.0950506101 1.8835871343 -1.4318141830
C -5.3279575381 2.9407855058 -2.8918695822
C -7.3034950171 1.7745445495 -3.8962604749
H -5.9447693405 -0.3268324406 -4.6644181325
H -4.7508064469 0.7942730215 -4.6968869257
H -5.8246154947 -1.6021307860 -2.4249292793
H -6.6034706808 -0.6027495692 -1.3768633863
H -6.5031520696 1.7787988916 -0.5171530040
H -7.5531816461 2.8778853450 -1.3997079181
H -7.9095968472 1.1542301025 -1.3893297862
H -4.6969329797 2.8625080123 -3.7867845876
H -5.9123424475 3.8608160213 -2.9966148616
H -4.6679904257 3.0773650076 -2.0271801925
H -6.8233630047 1.8647085810 -4.8756950410
H -7.9358878494 0.8814823254 -3.8972629487
H -7.9565645597 2.6460791485 -3.7790275998
