118
# extracted from Terachem optimization
Co 0.0840439459 -0.0608135108 0.1050356381
O 0.4951302360 2.2519424682 0.1885965759
C 1.8835162421 2.5614337140 0.0797923935
C 2.2522136008 3.7262817156 1.0242502783
C 1.3836978910 4.9851095942 0.7623751389
C -0.0963304091 4.5528516727 0.7832756217
C -0.3598372973 3.3739777112 -0.1411927573
H 1.5445788498 5.6725879996 1.6011812148
H 3.3138467026 3.9646518995 0.9336308462
H 2.0901087760 3.3922478266 2.0562586884
H 2.0928994701 2.8601485437 -0.9611067693
H -1.3761465702 2.9956541835 -0.0284631193
H -0.2018138590 3.6352756796 -1.1968680728
H -0.7503973936 5.3840671513 0.5082000928
H -0.3613816092 4.2599628996 1.8073394476
N 2.1115972537 0.1198671839 0.3044336634
C 2.6858149807 1.2760906368 0.3109429251
S 4.4082689212 1.6111014174 0.5101550430
C 5.2410005890 -0.0621608996 0.4126079747
C 4.2769779363 -1.0801153117 -0.1861726558
C 2.9255374539 -1.0932909767 0.5244395454
H 5.4832862034 -0.3345842246 1.4445586989
H 4.1430138676 -0.8887214395 -1.2587433155
H 4.7286767082 -2.0718268940 -0.0945801127
H 3.0730076299 -1.2128951398 1.6072380370
H 2.3284965222 -1.9393032837 0.1893061886
C 6.5578155773 0.1241526526 -0.3666667542
C 7.5217313958 1.1322328917 0.2500148348
Cl 7.3785415637 -1.5060428546 -0.4401553815
H 6.3348826612 0.3841528934 -1.4053045096
H 7.7599090231 0.8690042737 1.2852087198
H 8.4534317358 1.1558911687 -0.3198429305
H 7.0960317154 2.1428232282 0.2300979594
C 1.8320480417 5.7402657189 -0.5148694782
C 3.2268569435 6.3537584441 -0.4098750629
Cl 0.6532290824 7.0882122036 -0.8953373406
H 1.7803821986 5.0915012350 -1.3948368817
H 3.4605114701 6.9240195863 -1.3118666267
H 3.2898637515 7.0310406514 0.4474112050
H 3.9943044186 5.5790830249 -0.3002100615
O -0.0077949766 -2.2643185476 0.1776779420
C -0.4377216253 -2.7689677186 1.4560337263
C 0.2369140991 -4.1205834706 1.7469833094
C -0.0475729882 -5.1625127188 0.6316761221
C 0.3146295823 -4.5179293142 -0.7239897215
C -0.3572400144 -3.1681861199 -0.9103938770
H 0.6310953590 -6.0073400789 0.7946708909
H -0.0861569432 -4.4943760475 2.7212268027
H 1.3190484786 -3.9579105205 1.8121606871
H -1.5317661732 -2.8998570673 1.4235542360
H -0.0227752362 -2.6581137211 -1.8160120985
H -1.4518105581 -3.2537380896 -0.9479806308
H 0.0381544148 -5.1749430281 -1.5526395350
H 1.4019567561 -4.3793103212 -0.7706860948
N 0.0211136349 -0.4581800491 2.0558014582
C -0.1701707865 -1.6625837063 2.4778709555
S -0.2251259938 -2.2208935803 4.1435342697
C -0.1508904873 -0.6476727402 5.1588730368
C -0.5513361255 0.5444606601 4.2941388734
C 0.2678599639 0.6395712338 3.0089716085
H 0.8912365937 -0.5495109633 5.4779654008
H -1.6229134625 0.5004956762 4.0605030303
H -0.3907831494 1.4557375835 4.8769655588
H 1.3412804843 0.6447833799 3.2430049301
H 0.0594773938 1.5715409571 2.4808370460
C -1.0261455761 -0.8687445721 6.4090564882
C -0.6158327047 -2.0614738391 7.2663982146
Cl -0.9144699429 0.6476322626 7.4195210328
H -2.0761371841 -0.9443401156 6.1129351413
H 0.4317645822 -1.9857063873 7.5736866221
H -1.2338408380 -2.1051452450 8.1661767421
H -0.7589104112 -3.0033120962 6.7228437366
C -1.4850711837 -5.7332312376 0.7188412843
C -1.7662304842 -6.5158325580 1.9996673880
Cl -1.7975873086 -6.8415856807 -0.7034016719
H -2.2309813552 -4.9405829088 0.6035674069
H -2.7629947465 -6.9611719583 1.9613068742
H -1.0381408813 -7.3216862735 2.1356770176
H -1.7309072209 -5.8613137263 2.8780634981
O -1.9241883567 0.2691429012 -0.1027949218
C -2.3936595459 0.2017148087 -1.4729605934
C -3.5275861619 1.2146440946 -1.6997036154
C -4.7148811213 0.9768532225 -0.7311817841
C -4.1482636616 0.9318745563 0.7014470134
C -2.9932874415 -0.0465618384 0.8469010793
H -5.3766990540 1.8477463040 -0.8002156897
H -3.8583072532 1.1630886316 -2.7397690837
H -3.1287968664 2.2236807939 -1.5459853976
H -2.7760370952 -0.8172862799 -1.6404749358
H -2.5336554845 0.0246789610 1.8314349733
H -3.3051672764 -1.0846239353 0.6743464243
H -4.9267375358 0.6600035520 1.4192177165
H -3.7959069904 1.9343180346 0.9751514189
N -0.0039981548 0.1833466375 -1.8731558216
C -1.1792995053 0.3433063315 -2.3836477463
S -1.6062407232 0.6406271988 -4.0634687209
C 0.0292012956 0.5118941387 -4.9617896470
C 0.9870670283 -0.3401693829 -4.1360021250
C 1.1980246027 0.2057945424 -2.7267734719
H 0.4081540995 1.5349489606 -5.0496445919
H 0.6286278541 -1.3766835688 -4.0927255040
H 1.9553375353 -0.3579376632 -4.6447797317
H 1.5684632550 1.2387678133 -2.7692586319
H 1.9583878323 -0.3804033026 -2.2106373450
C -0.2608918317 -0.0242323273 -6.3783688446
C -1.2476273981 0.8147332367 -7.1833330681
Cl 1.3336875930 -0.0746062744 -7.2657217657
H -0.5930667093 -1.0644902340 -6.3188940601
H -0.9212244274 1.8573021154 -7.2469865391
H -1.3330503409 0.4193930500 -8.1980041790
H -2.2468578770 0.7818734603 -6.7320244040
C -5.5607460418 -0.2521977593 -1.1518153779
C -6.3150410138 -0.0561135131 -2.4651600338
Cl -6.7839989455 -0.6538922885 0.1484283514
H -4.9415931327 -1.1526204897 -1.2155414664
H -6.9236018082 -0.9352850983 -2.6888663464
H -6.9785802180 0.8122489975 -2.4083264833
H -5.6222007651 0.0886576028 -3.3020744846
