115
# extracted from Terachem optimization
Co 0.3849525509 0.2437069999 0.1669552186
O 0.6058312825 2.4365940056 0.1481501246
C 1.9615191161 2.8346895968 -0.2015815423
O 2.2047549985 4.0049004260 0.4941564508
C 0.9662207573 4.7421990258 0.4199029101
C -0.0659188274 3.6259200733 0.6610831834
H -0.2878963341 3.4645678388 1.7189552437
H -0.9853121677 3.7838366419 0.0947070242
H 0.8469798754 5.1183495522 -0.6034173204
H 1.9838357171 2.9902415151 -1.2928638677
N 2.4914723987 0.5315429654 0.3046425320
C 2.9444696817 1.7441338877 0.1953301462
S 4.5997518180 2.2577812142 0.3365311195
C 5.3170815239 0.8233560678 1.2951665458
C 4.6561526279 -0.4567969090 0.8646095110
C 3.3758057851 -0.5543781218 0.4825826723
H 5.0801420642 1.0260020894 2.3449851830
H 2.9226375617 -1.5170123061 0.2761405054
H 5.2383130985 -1.3717479241 0.9332551383
C 6.8602780154 0.8656350062 1.1489171056
C 7.3564524885 0.4933085391 -0.2568915181
C 7.5414608177 -0.0384780744 2.1886423675
Cl 7.1145507895 0.3927016860 3.8968382819
H 7.1727953718 1.8931619433 1.3752505178
H 8.4444159284 0.5914222702 -0.3167827214
H 7.0979380398 -0.5395588071 -0.5170704355
H 6.9237646969 1.1492772056 -1.0190914765
H 7.2878307303 -1.0932238616 2.0566921746
H 8.6246653025 0.0641763328 2.1077924164
C 0.9965408452 5.9259792648 1.3956407609
C 1.4418657454 5.5427558930 2.8164512149
C -0.3574658949 6.6446527757 1.4665384452
Cl -1.0498242757 7.0604445430 -0.1602938821
H 1.7302251260 6.6296067754 0.9848194963
H 1.5065453235 6.4363323222 3.4449982776
H 0.7378150780 4.8544843477 3.3005732141
H 2.4291586680 5.0744586926 2.8004568451
H -1.1117571640 6.0404410837 1.9782140177
H -0.2518832596 7.5866592230 2.0060762907
O 0.2095277037 -1.9276057514 0.3336313985
C -0.5129958354 -2.2123595900 1.5658438371
O -0.2632891900 -3.5361150303 1.8575446997
C -0.3040882370 -4.1940644517 0.5700570415
C 0.5075820675 -3.2130944551 -0.2907322252
H 1.5844850921 -3.3881927647 -0.2267717028
H 0.1860470556 -3.1856573651 -1.3328765425
H -1.3437452131 -4.1914395508 0.2196569095
H -1.5798568670 -2.0272573217 1.3617836488
N 0.1984712294 -0.0349810907 2.2820067729
C -0.0356101243 -1.2605368356 2.6504279775
S 0.1323017235 -1.9507916438 4.2305956031
C 0.2611523640 -0.4402438711 5.3189543232
C 0.7560193487 0.7452138407 4.5369679766
C 0.6935137299 0.9076561281 3.2086311566
H 1.0337351631 -0.7260784412 6.0384186114
H 1.0609535092 1.8141296948 2.7418707314
H 1.1971953540 1.5462881815 5.1252508084
C -1.0493265068 -0.2087307124 6.1225638542
C -2.2498096821 0.1932865728 5.2556219384
C -0.8553626907 0.8430833675 7.2275521945
Cl 0.5180403436 0.4644707702 8.3460377456
H -1.2749362513 -1.1619091634 6.6180200078
H -3.1417470528 0.3295395924 5.8747852678
H -2.0626760387 1.1332863122 4.7231430078
H -2.4847154915 -0.5847329101 4.5211060499
H -0.6647295903 1.8378612850 6.8175421858
H -1.7521020302 0.8938390574 7.8472010009
C 0.1808441800 -5.6429956105 0.6832898556
C 1.5388713527 -5.7963276065 1.3879816893
C 0.2447189519 -6.3204850121 -0.6930776849
Cl -1.2785914391 -6.1403328565 -1.6684566764
H -0.5773069652 -6.1640964997 1.2799999866
H 1.7966007701 -6.8562623641 1.4757218804
H 2.3515887987 -5.3073392655 0.8373946524
H 1.5051278638 -5.3779580260 2.3970941370
H 1.0534933795 -5.9173539848 -1.3086750256
H 0.4068315392 -7.3925613808 -0.5751947234
O -1.7640908545 0.2292832182 -0.1070504008
C -2.1285410732 -0.1536839901 -1.4640096062
O -3.2383541025 0.5998710837 -1.7950218497
C -3.9981348811 0.7243583074 -0.5738895544
C -2.8784181401 0.9960566567 0.4392489695
H -2.5880165512 2.0480296815 0.4799723707
H -3.0989656174 0.6202390073 1.4392872321
H -4.4544330208 -0.2472157693 -0.3461791092
H -2.3562191360 -1.2324313135 -1.4341737106
N 0.2326007791 0.1272436460 -1.9536577515
C -0.9767380700 0.0895440594 -2.4333002771
S -1.4433894155 0.1412130709 -4.1062396309
C 0.1082319694 0.8353621784 -4.8848821254
C 1.3158345182 0.3413768280 -4.1381901007
C 1.3464716733 0.0945726624 -2.8220571698
H 0.0248793025 1.9223814419 -4.7805023114
H 2.2672392424 -0.1849802914 -2.3232797484
H 2.2428889442 0.2349092668 -4.6950697773
C 0.0794929705 0.5078637480 -6.4005687416
C 0.2721603803 -0.9847317664 -6.7120504395
C 1.1306625868 1.3278893401 -7.1650262711
Cl 0.9334752814 3.1175906542 -6.9559319664
H -0.9018312201 0.8245437115 -6.7765375588
H 0.2004551535 -1.1620259696 -7.7892295560
H 1.2512012107 -1.3455312880 -6.3765374586
H -0.4946680428 -1.5963636662 -6.2261093037
H 2.1512506912 1.0859973914 -6.8585408581
H 1.0407293321 1.1314596858 -8.2344714709
C -5.1038386096 1.7739768121 -0.7369614472
C -4.6157121421 3.1095596255 -1.3235986167
C -5.8293679629 2.0387685777 0.5893669450
Cl -6.3983052269 0.5291644742 1.4248192607
H -5.8279570164 1.3377110961 -1.4352251523
H -5.4654733051 3.7798127440 -1.4838591573
H -3.9148074568 3.6268914313 -0.6568501752
H -4.1246183345 2.9544874180 -2.2871759052
H -5.1891764314 2.5638728958 1.3036114609
H -6.7173598504 2.6474179782 0.4146999530
