115
# extracted from Terachem optimization
Co 0.1460550634 0.1189137518 0.0186546498
O 0.2763798777 2.4903452025 0.0317651213
C 1.6114355225 2.7512947425 -0.4578255752
O 1.9390608391 4.0343862011 -0.0648556633
C 0.7174568104 4.7830447007 -0.2564342352
C -0.3266110990 3.7921920225 0.2892787527
H -0.4811213493 3.8925374623 1.3676074381
H -1.2813734705 3.8552801617 -0.2373265873
H 0.5564899298 4.9089860994 -1.3342407841
H 1.5917761860 2.6610169191 -1.5570421163
N 2.0952203477 0.4932597956 0.2298395594
C 2.5576561889 1.7073596330 0.1129514320
S 4.1797505967 2.2368989875 0.4217344461
C 4.8114802760 0.8337032254 1.4791025592
C 4.2037776877 -0.4622178853 1.0184598014
C 2.9650069115 -0.5828378391 0.5243572241
H 4.4727527879 1.0601239943 2.4956254157
H 2.5361785732 -1.5508917275 0.3003270528
H 4.7850920530 -1.3696546176 1.1575293289
C 6.3611257795 0.8887411233 1.4795344567
C 6.9941159628 0.4849357413 0.1386993575
C 6.9466600367 0.0201343905 2.6039255818
Cl 6.3593846805 0.4968266174 4.2511358939
H 6.6424035775 1.9254343991 1.7054839324
H 8.0797094362 0.6148979705 0.1755265833
H 6.7907293109 -0.5638095961 -0.1065538675
H 6.6158423066 1.1011508015 -0.6832726274
H 6.7096601968 -1.0393642365 2.4791597741
H 8.0323741214 0.1265624372 2.6209862380
C 0.8275629499 6.1639373076 0.4008566325
C 1.2872422527 6.1217763565 1.8680645933
C -0.4928838670 6.9392959595 0.3054790962
Cl -1.1517966882 7.0482793918 -1.3833524958
H 1.5806356447 6.7104423243 -0.1793639657
H 1.4231111824 7.1394609888 2.2464309945
H 0.5560959364 5.6265620978 2.5185914721
H 2.2424523906 5.5993930141 1.9608317890
H -1.2774009307 6.4818122263 0.9143258714
H -0.3502056080 7.9656435002 0.6459762399
O 0.1133260800 -2.2054294944 0.2037652685
C -0.5733019283 -2.4424291764 1.4514715876
O -0.1691428695 -3.6868064515 1.8973583307
C -0.0799107492 -4.4976525628 0.7048898367
C 0.5413209422 -3.5054593126 -0.2965740983
H 1.6344918446 -3.5325186562 -0.2991672462
H 0.1622407527 -3.6365801875 -1.3118691409
H -1.0973628361 -4.7447995260 0.3781231426
H -1.6567572203 -2.4158743309 1.2493912980
N 0.0215628367 -0.1515380932 1.9899758971
C -0.2159851214 -1.3464743307 2.4491391233
S -0.2881674966 -1.8391922163 4.1101636897
C 0.5053967295 -0.4011178089 5.0025753545
C 0.3868109918 0.8603630669 4.1951978445
C 0.2218418699 0.9381302461 2.8695399466
H 1.5621121101 -0.6700448896 5.1047774354
H 0.2346712450 1.8888808714 2.3547032240
H 0.5120990878 1.7946869084 4.7366843962
C -0.0981513966 -0.3310023540 6.4329538270
C -1.5506437365 0.1678244989 6.4591370442
C 0.7601150754 0.5427305724 7.3609079712
Cl 2.4756781124 -0.0246965896 7.4920475537
H -0.0658214880 -1.3493585557 6.8417138912
H -1.9493214684 0.1374694671 7.4775478425
H -1.6291530403 1.1997214443 6.0974396957
H -2.1963489199 -0.4577450143 5.8345008299
H 0.7964474573 1.5853425566 7.0351410562
H 0.3482041136 0.5171365373 8.3709074634
C 0.6786141349 -5.7946210096 1.0090607689
C 2.0457477370 -5.5713356580 1.6774451166
C 0.8607719266 -6.6535169653 -0.2490944392
Cl -0.6888685118 -6.9758750065 -1.1387675337
H 0.0426766166 -6.3523478167 1.7069986107
H 2.4849714393 -6.5318928015 1.9633565989
H 2.7586095496 -5.0737579302 1.0085907491
H 1.9395777124 -4.9685570936 2.5827169949
H 1.5381547352 -6.1849255733 -0.9683262025
H 1.2691948552 -7.6283773481 0.0203239300
O -1.8218850684 -0.1670384338 -0.1871016784
C -2.2286827037 -0.3673118890 -1.5776595561
O -3.3347486840 0.4362885904 -1.7783101667
C -4.0547368850 0.4121604253 -0.5247660796
C -2.9028415567 0.5657924857 0.4763752508
H -2.5915477730 1.6034983924 0.6164320842
H -3.0901401080 0.0816165350 1.4346779490
H -4.5032435526 -0.5810863850 -0.3983037748
H -2.4710751072 -1.4375488642 -1.6785638228
N 0.0945115231 0.1604386697 -1.9681389836
C -1.0862320446 -0.0007070073 -2.5013239457
S -1.4689267803 0.0274114475 -4.1928269649
C -0.0185371101 1.0339233187 -4.8000679066
C 1.2177464946 0.5448568606 -4.0984561696
C 1.2381760936 0.2188415133 -2.7988926629
H -0.2390036630 2.0642857651 -4.5016795186
H 2.1522460892 -0.0719490335 -2.2976902699
H 2.1494301277 0.4955813274 -4.6545616724
C 0.0129061515 0.9869620809 -6.3468844086
C 0.3602770813 -0.3964101081 -6.9209392457
C 0.9931281244 2.0306267567 -6.9062182256
Cl 0.6179997135 3.7224690224 -6.3723406148
H -0.9876035937 1.2736508223 -6.6943694958
H 0.3175694172 -0.3750130479 -8.0138201074
H 1.3676583233 -0.7162371860 -6.6316879647
H -0.3442310744 -1.1619219250 -6.5796841407
H 2.0263787475 1.8299280971 -6.6129448248
H 0.9418112326 2.0335895508 -7.9959789664
C -5.1635270031 1.4715956720 -0.5286498032
C -4.6879777708 2.8684683199 -0.9607908316
C -5.8561134446 1.5713227386 0.8373034320
Cl -6.4302304686 -0.0255869441 1.4799101522
H -5.9039235871 1.1212136597 -1.2574711852
H -5.5401909584 3.5522255615 -1.0192401263
H -3.9724842807 3.3017053387 -0.2505904963
H -4.2202820531 2.8334779409 -1.9479661270
H -5.1917877014 1.9909167741 1.5978650768
H -6.7372563005 2.2095237093 0.7613427283
