139
# extracted from Terachem optimization
Co -0.3882694471 -0.0346483791 0.2732244860
O -0.4035121065 2.0867185631 0.2454079309
C -0.7137244766 3.0621358738 -0.8013654307
O 0.3744401489 3.9556868716 -0.7983123326
C 0.8886859002 3.9160177901 0.4969017980
C 0.4254596270 2.8391158652 1.1303912818
H 0.6458122578 2.3937663633 2.0821400690
H -1.6430327258 3.5692432210 -0.5101960913
H -0.8031690021 2.5563854184 -1.7594057638
C 1.8469616291 4.9997986829 0.9213177697
C 2.9557719330 5.1615372911 -0.1565882963
C 1.0658075275 6.3272535904 1.0413627786
C 2.4908873479 4.5763964480 2.2408503637
C 2.4805377209 5.2784836367 3.3778886825
O 3.1364887266 3.3661292337 2.1064442821
H 2.5190348871 5.4189745691 -1.1253560254
H 3.6275746252 5.9690675063 0.1472116172
H 3.5483640744 4.2497632779 -0.2636620592
H 0.2794815943 6.2632224305 1.7995333904
H 1.7447454158 7.1416482710 1.3088901759
H 0.6050681045 6.5744653819 0.0808886402
H 3.0271455918 4.9378058169 4.2527882385
H 1.9582177610 6.2208822389 3.4658169420
H 3.3742581750 3.0169122174 2.9862940432
O 1.7910397562 -0.1111191445 0.2763867899
C 2.7634738188 0.8728469295 -0.2001164635
O 3.5233889249 0.1934220127 -1.1750412484
C 3.4726279501 -1.1522128926 -0.8157793491
C 2.4860692336 -1.3428942230 0.0592832709
H 2.0575788047 -2.2238223590 0.4986039458
H 3.3836770548 1.1687192389 0.6537877975
H 2.2421944978 1.7175737627 -0.6433136367
C 4.4042517153 -2.1221984339 -1.4998582351
C 4.6017904600 -1.6992021107 -2.9814865155
C 5.7733073793 -2.0946350716 -0.7855831413
C 3.7383761719 -3.4981700067 -1.4648528802
C 4.2765005780 -4.6149331357 -0.9638675725
O 2.4978152388 -3.4499486777 -2.0556244624
H 5.0465510486 -0.7028514229 -3.0463044098
H 5.2770433476 -2.4124412318 -3.4623148491
H 3.6578710213 -1.7016524340 -3.5313938800
H 5.6899245685 -2.4029218163 0.2608277914
H 6.4782640409 -2.7603321870 -1.2919087596
H 6.1871883407 -1.0822573350 -0.8175928827
H 3.7616021018 -5.5685128239 -1.0373367154
H 5.2540617685 -4.6214705111 -0.5020197295
H 2.0526325491 -4.3193618794 -1.9790876626
O -0.4141727949 -2.2881581001 0.5134836091
C -0.5518223108 -2.9284941147 1.8115774293
O -0.1423395689 -4.2565569735 1.6267158394
C -0.3589404367 -4.5342831608 0.2780390614
C -0.5305176264 -3.3920129805 -0.3899381054
H -0.6454951942 -3.1656217659 -1.4346867490
H -1.6146687791 -2.8885151994 2.0996376702
H 0.0876589036 -2.4314358003 2.5366185949
C -0.3797128575 -5.9961876493 -0.1004199251
C 0.8438714552 -6.7066140964 0.5415077829
C -1.6736839430 -6.6139789295 0.4843871183
C -0.3218385008 -6.1484629221 -1.6177995718
C -1.2930474233 -6.6085113831 -2.4080749173
O 0.9219271031 -5.7876420014 -2.1230434409
H 0.7779719883 -6.6636820854 1.6314291028
H 0.8505235446 -7.7571039581 0.2370705414
H 1.7857529177 -6.2495156261 0.2320326866
H -2.5715949337 -6.1490315673 0.0670429239
H -1.7045217588 -7.6871663022 0.2770518395
H -1.6876359730 -6.4754468009 1.5685735028
H -1.1480094350 -6.7201861524 -3.4798437632
H -2.2496630510 -6.9222680399 -2.0148739742
H 0.9780906389 -6.0756653751 -3.0501306568
O -2.4534955741 -0.0217859493 0.5952240172
C -3.4052447173 -1.0686103881 0.2437885022
O -4.4477067250 -0.4123169636 -0.4268460370
C -4.4559060571 0.8874760061 0.0900833052
C -3.2933069849 1.1325114580 0.6937443104
H -2.8599676028 2.0179502784 1.1190231592
H -3.7668332594 -1.5094964075 1.1836046565
H -2.9228043156 -1.7991938930 -0.4020228996
C -5.7001834562 1.7062301925 -0.1366302028
C -5.9999470772 1.7451732941 -1.6611746586
C -6.8742763367 1.0157870444 0.5942921482
C -5.4697816536 3.1283289290 0.3656659674
C -6.2109909179 3.7703001917 1.2710004341
O -4.3937867441 3.7189814579 -0.2768352603
H -6.1920863576 0.7387151578 -2.0428463193
H -6.8882967473 2.3586381005 -1.8365165762
H -5.1591536902 2.1765192426 -2.2081986837
H -6.7106999289 0.9804114147 1.6754157524
H -7.8064307632 1.5529290707 0.3991369096
H -6.9912862728 -0.0068694247 0.2267497051
H -6.0057874494 4.8035630377 1.5401987458
H -7.0576190366 3.3040320676 1.7545222269
H -4.3946339815 4.6660959418 -0.0581554120
O -0.1763029110 0.0247461382 2.4944386025
C -1.1405049274 0.3407503077 3.5396166239
O -0.4170290763 1.0072477736 4.5417202388
C 0.9030862979 0.5877356893 4.3991673404
C 1.0641854530 0.0080510909 3.2086153531
H 1.9203114366 -0.3583692066 2.6737732019
H -1.5429147743 -0.6085754095 3.9237578656
H -1.9218425290 0.9886347388 3.1476134391
C 1.8187726043 0.8335597358 5.5745696136
C 1.6585551609 2.2997678332 6.0622102452
C 1.3752542772 -0.1159864995 6.7150138476
C 3.2669637738 0.5819414327 5.1669607351
C 4.0635377770 -0.3785951120 5.6393400968
O 3.7222096267 1.5133973516 4.2390992243
H 0.6389156170 2.4727672490 6.4154332057
H 2.3457986454 2.4769500293 6.8944991327
H 1.8765788299 3.0210726287 5.2722935391
H 1.4577348254 -1.1669546230 6.4229828117
H 1.9886058582 0.0522088990 7.6044011358
H 0.3336273299 0.0875427262 6.9765856727
H 5.1010520328 -0.4619125190 5.3244712040
H 3.7246241122 -1.0941765944 6.3747564721
H 4.6806361923 1.3864127748 4.1348801023
O -0.4884776268 -0.3738260717 -1.7883889242
C 0.6051356924 -0.6478549569 -2.7294746540
O 0.3471304634 0.1650325356 -3.8442067018
C -1.0195009798 0.4038189502 -3.8445320569
C -1.5360406632 0.0851042905 -2.6557039467
H -2.5247089702 0.1701195527 -2.2394885286
H 0.5594456017 -1.7106682276 -2.9960122605
H 1.5497270494 -0.3742950467 -2.2749929841
C -1.6088948439 0.9405759203 -5.1249468322
C -0.7276104020 2.1119091166 -5.6434853907
C -1.5950209127 -0.2010187001 -6.1672809565
C -3.0136309510 1.4676575363 -4.8584553473
C -4.1263665339 1.1003351235 -5.4974087972
O -2.9921187035 2.4448694748 -3.8782111205
H 0.2947969127 1.7743898493 -5.8313137583
H -1.1500858658 2.4794173209 -6.5828035485
H -0.7041730719 2.9397308420 -4.9309070969
H -2.2323070712 -1.0356442251 -5.8596743559
H -1.9439806916 0.1678926501 -7.1358883570
H -0.5739493212 -0.5704383494 -6.2957840744
H -5.0838964309 1.5679409567 -5.2827405439
H -4.1181843690 0.3452105775 -6.2709600523
H -3.8347783053 2.9272435414 -3.9004535417
