109
# extracted from Terachem optimization
Co -0.3331743134 -0.3327048922 -0.3586535438
N -0.0118617847 1.9493907420 -0.5999673501
C 1.2933569447 2.1176678673 -0.7728088232
S 1.7767293850 3.7371678702 -1.1277978352
C 0.1092353271 4.2201409950 -1.0217081432
C -0.6815296536 3.1261287116 -0.7376343535
H -1.7555948683 3.1635085430 -0.6237178507
N 1.6426036891 -0.2179458720 -0.5406146563
C 2.1773075184 0.9570752665 -0.6701985194
S 3.9249741976 1.0795530130 -0.6562175092
C 4.0169590474 -0.7748985328 -0.7703460494
C 2.6234303603 -1.2858486062 -0.3240485745
H 2.6229790025 -1.5510657714 0.7393038342
H 2.3392208999 -2.1763900037 -0.8848070516
H 4.1905076148 -1.0331217891 -1.8208010809
C 5.2265382489 -1.2734429847 0.0271070239
O 6.0543582737 -0.5011663377 0.4562838787
C 5.3196386654 -2.7928078274 0.2985045334
O 4.5314114960 -3.0109726706 1.4744493952
O 4.6593732951 -3.4207883230 -0.7658658914
C 6.7541642859 -3.2679081665 0.4791754027
H 5.1038803855 -2.9124258595 2.2541477443
H 4.6696446133 -4.3791266155 -0.5987494265
H 7.3086789278 -3.1583180384 -0.4563154694
H 7.2685552615 -2.6840092811 1.2473566370
H 6.7528793547 -4.3243866452 0.7696702086
C -0.2195201332 5.6501093150 -1.2648071298
O 0.6634189017 6.4204585625 -1.5903942662
C -1.7043412793 6.0743115473 -1.1683258844
O -2.3936039651 5.3548940896 -2.1891299123
O -2.1493297582 5.5860862448 0.0712269890
C -1.8747867225 7.5800747697 -1.3106332828
H -2.5370929604 5.9407876115 -2.9503188552
H -3.0760271224 5.8630133436 0.1790680520
H -1.3659513777 8.0985397476 -0.4951037819
H -1.4508908533 7.9411322940 -2.2520354978
H -2.9422258489 7.8268402254 -1.2794823851
N -0.4076716155 -2.6240964140 0.0309615150
C -0.3284342903 -2.7654320671 1.3474812305
S -0.4662968335 -4.3918123725 1.9145878168
C -0.6244827111 -4.9144696619 0.2633231241
C -0.5759010436 -3.8260174273 -0.5829510998
H -0.6602667059 -3.8886641724 -1.6584892238
N -0.1661200135 -0.4093972304 1.6174078167
C -0.1403898028 -1.5790207098 2.1812824204
S 0.1797459943 -1.6581790111 3.9024440709
C -0.0860134233 0.1786226968 3.9850309976
C 0.1500559258 0.6867532222 2.5423366101
H 1.1930917468 0.9860677762 2.3863577356
H -0.4757432786 1.5537985989 2.3304501868
H -1.1303898264 0.3496744999 4.2682908765
C 0.7915244362 0.7739797006 5.0881281708
O 1.4200934571 0.0650808960 5.8417886822
C 0.8672493747 2.3163208724 5.1657158754
O 1.8624105942 2.6966802332 4.2094933985
O -0.3639789661 2.7843705906 4.6861513458
C 1.2003437897 2.8166926966 6.5634194295
H 2.7269248693 2.7219384972 4.6536482721
H -0.3320373323 3.7567815125 4.6832995574
H 0.3903275876 2.5744354221 7.2561207409
H 2.1155190446 2.3506891759 6.9388613233
H 1.3332090087 3.9039631423 6.5381431436
C -0.7928971261 -6.3686830158 0.0038534149
O -0.8964736314 -7.1370093644 0.9406804789
C -0.8973672461 -6.8343287171 -1.4691311716
O -2.0701081336 -6.2278533018 -2.0106672618
O 0.2054913049 -6.2571073820 -2.1199184872
C -0.9279312736 -8.3514585067 -1.5850686951
H -2.8121389799 -6.8510151617 -1.9391644563
H 0.2020577918 -6.5812108726 -3.0375854296
H -0.0016584501 -8.7811555196 -1.1975167428
H -1.7578165253 -8.7793654078 -1.0153566374
H -1.0390948094 -8.6286573583 -2.6394767793
N -2.3244241521 -0.2596375921 -0.3876845157
C -2.8261203285 -0.3283229343 -1.6206444849
S -4.5413092510 -0.2930541629 -1.6963251017
C -4.5832001702 -0.1524374747 0.0410335267
C -3.3052856896 -0.1570777228 0.5516622323
H -3.0596799721 -0.0895244758 1.6003430913
N -0.6131349313 -0.4791345190 -2.3391186432
C -1.8573599372 -0.4229745472 -2.7053394674
S -2.2439081788 -0.3880827129 -4.4069199773
C -0.4663433552 -0.8119510423 -4.7616293495
C 0.3178985242 -0.4516064149 -3.4705300205
H 0.7560656357 0.5510027060 -3.5358528437
H 1.1331798952 -1.1590651712 -3.3160422793
H -0.4140730024 -1.8915080920 -4.9368867125
C -0.0174908721 -0.1131616228 -6.0477545589
O -0.7951406783 0.5156606700 -6.7294603348
C 1.4831710244 -0.2032429712 -6.4101435705
O 2.1018567460 0.8880071841 -5.7189412746
O 1.9592083525 -1.3836469378 -5.8242921158
C 1.7247172557 -0.1365465116 -7.9111349444
H 2.0666230237 1.6756228359 -6.2881320979
H 2.9013569680 -1.4699088400 -6.0499034916
H 1.3097074998 -1.0208712361 -8.4018247731
H 1.2471440160 0.7458286235 -8.3455726857
H 2.8024545978 -0.0948768051 -8.1044201177
C -5.9121010689 -0.0689300580 0.7031465985
O -6.9211273372 -0.2087630464 0.0401067024
C -5.9409897733 0.1378805270 2.2368481307
O -5.2836632381 -0.9848204896 2.8229393956
O -5.1349550925 1.2651407113 2.4657930065
C -7.3617877899 0.3047674791 2.7569953485
H -5.9501733850 -1.6253349247 3.1216873907
H -5.2073696996 1.4928026355 3.4090730224
H -7.8249447552 1.1931767516 2.3224570249
H -7.9841760313 -0.5561125831 2.4966768535
H -7.3355566882 0.4103782246 3.8476021320
