118
# extracted from Terachem optimization
Co 0.2212414674 0.1079816111 0.1618448156
O 0.4088233824 2.1845826170 0.5693692873
C 1.7558221885 2.7050459182 0.5945805303
C 1.8576175379 3.8021112119 1.6663879494
C 0.8465829221 4.9526478550 1.4102193634
C -0.5552166204 4.3322823499 1.2231759376
C -0.5642186869 3.2084044898 0.1995158337
H 0.8197722781 5.5706254712 2.3149464728
H 2.8791078734 4.1863411822 1.7120364781
H 1.6507755705 3.3481835813 2.6429100564
H 1.9661238806 3.1359528576 -0.3968447015
H -1.5215555255 2.6864865206 0.1652647602
H -0.3227114387 3.5590738447 -0.8118824217
H -1.2782752207 5.0945007918 0.9204392043
H -0.8967919980 3.9326966373 2.1863818450
N 2.2826707093 0.3312621740 0.5429660474
C 2.7177506757 1.5242859117 0.7559892668
S 4.3562592418 2.0170837667 1.1678065277
C 5.3505805780 0.4338321220 1.0171417850
C 4.5935264881 -0.5754089840 0.1575991627
C 3.1769209539 -0.8305761578 0.6668465033
H 5.4572576603 0.0535636335 2.0378048229
H 4.5653653650 -0.2378173256 -0.8865137196
H 5.1475213508 -1.5181596958 0.1744702423
H 3.2003909124 -1.1301275018 1.7240010208
H 2.7078991608 -1.6516264000 0.1206038831
C 6.7472671488 0.8205411296 0.4906857028
C 7.4944530818 1.8266319090 1.3599588102
Cl 7.7306845544 -0.7148073001 0.3913477484
H 6.6669253168 1.1805482545 -0.5388535553
H 7.5812121822 1.4699690476 2.3908840223
H 8.5008854179 1.9862928887 0.9664737161
H 6.9836085006 2.7972134208 1.3621836240
C 1.3048237471 5.8852432333 0.2610732035
C 2.6187412264 6.6132495794 0.5387447530
Cl 0.0170270028 7.1464447221 -0.0566167916
H 1.3792752024 5.3403420663 -0.6854720602
H 2.8339126129 7.3262822493 -0.2604171881
H 2.5681175259 7.1648883891 1.4826930348
H 3.4583709177 5.9106180045 0.5886774795
O 0.1535300315 -2.1100464920 0.0980131382
C -0.4028319337 -2.7860474078 1.2428892519
C 0.3264657479 -4.1219179804 1.4804386759
C 0.2952790293 -5.0439174873 0.2327172165
C 0.7825686791 -4.2211715742 -0.9763281766
C 0.0327611342 -2.9082524402 -1.1169338479
H 1.0208741752 -5.8482372436 0.3999510794
H -0.1135807989 -4.6274653898 2.3436809851
H 1.3684175934 -3.9016480737 1.7408083513
H -1.4682295694 -2.9752911697 1.0390021081
H 0.4495294771 -2.2817946361 -1.9060537109
H -1.0344263169 -3.0623766550 -1.3245404633
H 0.6799889803 -4.7905365083 -1.9033046880
H 1.8506522539 -4.0050234307 -0.8471732155
N -0.1386394712 -0.5618110804 2.1941527511
C -0.3468101178 -1.8124944889 2.4227966537
S -0.6287005260 -2.5993166612 3.9731702509
C -0.8006390118 -1.1788292931 5.1829472041
C -1.1062433806 0.1089106312 4.4243623989
C -0.0901351018 0.3900485495 3.3182431487
H 0.1678094789 -1.0972292792 5.6863444089
H -2.1211495881 0.0728867529 4.0069283082
H -1.0848056436 0.9371749082 5.1381452527
H 0.9290654800 0.3808516364 3.7302331660
H -0.2537339414 1.3831683167 2.8990583353
C -1.8588769930 -1.5947959530 6.2245528506
C -1.5237055572 -2.8732504389 6.9855871089
Cl -2.0127604335 -0.2233809471 7.4197335084
H -2.8376231363 -1.6730914075 5.7430491146
H -0.5508546692 -2.7933910517 7.4803626505
H -2.2813016502 -3.0645298776 7.7490204082
H -1.5079841730 -3.7379205971 6.3111168853
C -1.0898799872 -5.7248964625 0.0761356118
C -1.3447798802 -6.8151897621 1.1153222627
Cl -1.2668817291 -6.4781318131 -1.5835287945
H -1.8963350052 -4.9861653561 0.1137111009
H -2.3235857048 -7.2737205962 0.9570952887
H -0.5839465923 -7.5983820375 1.0467499756
H -1.3293920187 -6.4035516701 2.1311153783
O -1.9062961718 0.1341068402 -0.4671181787
C -2.2168025856 0.1186132399 -1.8708442472
C -3.3746327799 1.0884123440 -2.1808834337
C -4.6390143273 0.7850402130 -1.3348958804
C -4.2097358753 0.7126231758 0.1443521359
C -3.0486183386 -0.2445332384 0.3553861131
H -5.3198395926 1.6373292698 -1.4435633274
H -3.6027429401 1.0547654630 -3.2487749376
H -3.0348200133 2.1085310247 -1.9651426280
H -2.5135353613 -0.9073390616 -2.1381180905
H -2.6704645328 -0.2140327516 1.3770908685
H -3.3195615089 -1.2808706057 0.1134052398
H -5.0456191546 0.4103864532 0.7802095265
H -3.9030042570 1.7144496374 0.4710678032
N 0.1945191905 0.4405606189 -1.9975010521
C -0.9253656641 0.4093361985 -2.6353781422
S -1.2034263147 0.6215530757 -4.3614280460
C 0.5146124403 0.6298310666 -5.1080235432
C 1.5086375428 0.0356591909 -4.1146107144
C 1.4407544966 0.7025389317 -2.7408483196
H 0.7526131680 1.6808692251 -5.2993915774
H 1.3441537004 -1.0453489971 -4.0172175507
H 2.5155113023 0.1692065174 -4.5202054521
H 1.5583108009 1.7907366238 -2.8452813028
H 2.2644964402 0.3524073023 -2.1174565775
C 0.4262182942 -0.1054506287 -6.4601098780
C -0.5626770326 0.5034003021 -7.4489646553
Cl 2.0944731065 -0.0734466744 -7.2021889632
H 0.2041690245 -1.1626212104 -6.2895034750
H -0.3375716239 1.5581995681 -7.6345596341
H -0.5139251021 -0.0292443139 -8.4014351085
H -1.5912064873 0.4205374351 -7.0770440284
C -5.3997168942 -0.4565183414 -1.8677585550
C -6.0505553716 -0.2354112151 -3.2316591059
Cl -6.7115260393 -0.9532942607 -0.6916593611
H -4.7434072403 -1.3312574242 -1.9110210651
H -6.6047368053 -1.1257261598 -3.5376563233
H -6.7491684334 0.6061646922 -3.1978671967
H -5.2978664483 -0.0324630507 -4.0020450579
