139
# extracted from Terachem optimization
Co -0.2180078971 -0.4019572858 -0.1907612470
O 0.0139833514 1.7593136752 -0.1317122648
C 1.3501851296 2.1524769338 0.1995101957
S 1.5147126162 3.9125456634 -0.3144730629
C -0.3060507450 4.1005374102 -0.5547307997
C -0.9020053297 2.8609803657 0.1137275839
H -0.9793045287 3.0165866443 1.1938511104
H -1.8678268619 2.5654367827 -0.2956661461
H -0.4888213682 4.1052730640 -1.6317627643
H 1.4995621224 2.0865932153 1.2825791909
O 1.9075240393 -0.1602404731 -0.1987757697
C 2.3141119177 1.2037346561 -0.5346313167
C 3.7359177556 1.2850234567 -0.0846730432
C 4.1367290996 0.1474022965 0.4909028485
C 3.0194033930 -0.8630407629 0.4692661171
H 2.6919617995 -1.1668744291 1.4687446732
H 3.2499509235 -1.7571824908 -0.1125053203
H 4.3489749622 2.1718422287 -0.1907058569
H 2.1809913656 1.3323955895 -1.6131494798
C 5.4978335190 -0.0288399503 1.1710179125
O 6.2760561723 1.1231219116 0.9356596714
C 5.2994021774 -0.1481129428 2.6909886033
C 6.2866542522 -1.2641050265 0.6353826237
O 5.4078429344 -2.3854336997 0.7018207758
N 6.8130323900 -0.9767775140 -0.6789286089
H 6.7987286619 0.9270608947 0.1290154214
H 4.7342114411 -1.0450944135 2.9587662068
H 6.2803062481 -0.1934593584 3.1721176095
H 4.7836839732 0.7393622164 3.0701021109
H 7.1445485762 -1.3987650570 1.3034758549
H 5.9372618606 -3.1994367772 0.6948825619
H 7.6647777538 -1.4846199745 -0.9001621030
H 6.1282672132 -1.1276885785 -1.4156423441
C -0.8634012004 5.4738918850 0.0124587438
O -0.8690161834 5.4296578648 1.4137293820
C 0.0095508067 6.6401586481 -0.4650441968
C -2.3474527077 5.6846569447 -0.4886767926
O -2.4156660885 5.2144940858 -1.8193644656
N -3.2844151784 5.0569688607 0.4307886865
H -1.8135722665 5.2621929704 1.6560093304
H 0.0467200118 6.6818113923 -1.5580419736
H -0.4074386468 7.5797461541 -0.0920782115
H 1.0256427114 6.5632430193 -0.0678150160
H -2.5214253995 6.7661700987 -0.4402993765
H -3.1805676118 5.6171330254 -2.2623442520
H -4.1013449185 5.6352113862 0.6087240537
H -3.5965875144 4.1346331432 0.1204487617
O -0.2072103412 -2.6046967600 0.0739794548
C 0.0682862856 -2.9522929848 1.4346683510
S -0.5098793720 -4.6790843650 1.6391830501
C -0.3433966188 -5.0321025050 -0.1580263372
C 0.1324515283 -3.7132560191 -0.8001876277
H 1.2166496924 -3.7288925858 -0.9359918834
H -0.3701330789 -3.5203646485 -1.7484404769
H -1.3368132723 -5.3143586395 -0.5140120931
H 1.1474393040 -2.9120221109 1.6231250308
O -0.2744403182 -0.6187134051 1.9238943645
C -0.6818856010 -1.9620075010 2.3324467463
C -0.3144949645 -2.0334785350 3.7795046268
C 0.2848860469 -0.9131381402 4.1912665262
C 0.3569683262 0.0803690924 3.0609446884
H 1.3823820699 0.3429454955 2.7823200313
H -0.2063611735 0.9953138029 3.2512197997
H -0.4812160828 -2.9074529135 4.3974953213
H -1.7542080342 -2.0568283893 2.1283148193
C 0.9130458784 -0.7340768339 5.5772717766
O 0.6512970616 -1.8849317391 6.3471828680
C 2.4390933639 -0.6108104451 5.4312648391
C 0.3465857674 0.5004885446 6.3433022773
O 0.4235520322 1.6188282603 5.4594492528
N -0.9767753370 0.1957047834 6.8393569781
H -0.1594669881 -1.6745935403 6.8601704042
H 2.7223642915 0.2997927412 4.8957310442
H 2.8866399063 -0.5852755924 6.4286586293
H 2.8394882750 -1.4856643892 4.9098621912
H 0.9918307882 0.6483368717 7.2163409872
H 0.4218402336 2.4348034285 5.9854728987
H -1.2274473469 0.7327278157 7.6649598864
H -1.6892168289 0.3368733897 6.1269589453
C 0.6197083651 -6.2679756098 -0.4350898253
O 1.9439354446 -5.8945740361 -0.1549641036
C 0.2224885924 -7.4570753480 0.4478000859
C 0.5224594859 -6.6972927908 -1.9487266867
O -0.8267277797 -6.5747689152 -2.3398298783
N 1.4539066645 -5.9146078321 -2.7583712326
H 2.3530424088 -5.7238322579 -1.0357319506
H -0.8185421795 -7.7468261708 0.2735742166
H 0.8661906683 -8.3102878484 0.2162349895
H 0.3644665521 -7.2278110831 1.5069119682
H 0.8615521758 -7.7390602587 -1.9835394003
H -1.0124649491 -7.1810441469 -3.0755746244
H 1.9211975892 -6.4797891640 -3.4637007352
H 0.9631952674 -5.1638518541 -3.2403891071
O -2.3635827286 -0.4260614371 -0.4107109261
C -2.7414047040 -0.0943204987 -1.7748328197
S -4.4435886428 -0.6853165987 -2.0119562362
C -4.8014584744 -0.2752058321 -0.2474181415
C -3.5109822571 -0.7313199423 0.4474964584
H -3.3380131915 -0.2115863306 1.3901193281
H -3.5257967838 -1.8128603622 0.6036118752
H -5.6233046674 -0.9368660916 0.0391498503
H -2.6850620293 0.9939217095 -1.8699751274
O -0.4020185723 -0.3848111433 -2.2841823419
C -1.7492781784 -0.7677189233 -2.7205237592
C -1.8307211810 -0.2605443499 -4.1252142845
C -0.7733152952 0.4925799970 -4.4360905293
C 0.1916449880 0.5267620985 -3.2796972053
H 0.2800209214 1.5166785033 -2.8197090959
H 1.1853770561 0.1515774463 -3.5274217765
H -2.6865145654 -0.4285274613 -4.7674736462
H -1.8292780175 -1.8553303113 -2.6106486390
C -0.6355824920 1.3033746104 -5.7290938512
O -1.7806694607 1.0892543207 -6.5232982585
C -0.5746028426 2.8020539569 -5.3923411781
C 0.6121652524 0.8838788540 -6.5655756521
O 1.7449324018 0.9357996814 -5.6993422668
N 0.3708431202 -0.4019120551 -7.1798458575
H -1.5532145270 0.3401751699 -7.1145891705
H 0.3323291693 3.0523946934 -4.8339388490
H -0.5833719085 3.3756492178 -6.3233709038
H -1.4554706414 3.0933847580 -4.8116120284
H 0.7078145255 1.6145855748 -7.3768853779
H 2.5477911912 0.9898212905 -6.2427166867
H 0.8970483590 -0.5509294256 -8.0362893603
H 0.5442614654 -1.1726673094 -6.5393377543
C -5.2425611215 1.2009992256 0.0476243775
O -4.0915286426 2.0310015222 0.2830444070
C -6.0547080216 1.8146893236 -1.0904104671
C -6.0991665666 1.2557792016 1.3617431967
O -7.0595160963 0.2303684983 1.2821169248
N -5.2252362085 1.1664402188 2.5390519168
H -3.9682431956 1.9762838354 1.2603444595
H -6.9312886561 1.2016941899 -1.3171365483
H -6.3974193731 2.8121990440 -0.7989316659
H -5.4555312942 1.9089224612 -1.9981527861
H -6.5641386505 2.2485536073 1.3858466322
H -7.8330450850 0.4481020884 1.8270506711
H -5.5993470580 1.7094832992 3.3151394227
H -5.1929139809 0.1972752074 2.8548064947
