166
# extracted from Terachem optimization
Co 0.1920822567 0.0273525062 0.0518061692
N 0.5654342316 2.1973619100 0.2768857340
C 1.8664323445 2.4137485596 0.4432236966
S 2.2684358573 4.1025955889 0.5564332888
C 0.5866888127 4.5280544033 0.3378901245
C -0.1445851853 3.3521038968 0.2153537305
H -1.2145003128 3.3093834943 0.0573397125
N 2.3293369011 0.1192311371 0.3548925607
C 2.8177681225 1.3225070258 0.4978944751
C 4.3042955710 1.5624634871 0.6364810635
C 5.0132850322 0.4183690986 1.3991084102
C 4.4516301687 -0.9003151321 0.9205234318
C 3.2013221151 -0.9860302321 0.4361174313
H 4.7671825432 0.5083206730 2.4700545445
H 4.7194577703 1.6232709411 -0.3822193702
H 4.5122444640 2.5238478177 1.1147257018
H 2.7530722753 -1.9255823710 0.1332120972
H 5.0541124815 -1.7978677005 1.0249230516
C 6.5267002884 0.5286040495 1.2709179058
C 7.1859813499 0.1376366276 0.0962555651
C 8.5673804713 0.2693593873 -0.0236387053
C 9.3298565433 0.7969272677 1.0292890004
C 10.8341363208 0.9824624895 0.8883673141
N 11.4096150768 -0.1191240097 0.1377217339
C 11.1833884284 2.3131604775 0.1978434099
C 8.6722982545 1.1822816605 2.2040199446
C 7.2895972569 1.0520794866 2.3225499120
H 6.6190686036 -0.2793310658 -0.7335236520
H 9.0705088100 -0.0418940506 -0.9341205393
H 11.2590526673 1.0193778252 1.9097234066
H 12.3592225014 0.0393306709 -0.1860629213
H 11.3167170143 -1.0318137232 0.5736259062
H 10.7683787848 3.1551896511 0.7582576759
H 12.2700993864 2.4448721559 0.1451873995
H 10.7776923716 2.3347489649 -0.8184784481
H 9.2450829441 1.5811949949 3.0376682542
H 6.8026325323 1.3519360972 3.2477647947
C 0.1269449923 5.9093272345 0.2983563229
C 1.0173450332 6.9706871138 0.0389068061
C 0.5693806991 8.2839944137 0.0005653811
C -0.7839448672 8.5878533765 0.2134539604
C -1.2888425663 10.0212412039 0.1192481822
N -0.2315647935 10.9533467301 0.5020624421
C -1.7413042666 10.3334690395 -1.3191652141
C -1.6717813847 7.5334026334 0.4778154774
C -1.2318269096 6.2170750705 0.5202250771
H 2.0673892665 6.7666562960 -0.1573933516
H 1.2577744837 9.0997694732 -0.1934591371
H -2.1785895442 10.0986507490 0.7700546689
H -0.4744168164 11.9074863536 0.2463401226
H -0.0580179588 10.9362347457 1.5049051250
H -2.5125604105 9.6311799133 -1.6491924227
H -2.1600961055 11.3447632303 -1.3727546475
H -0.8915684896 10.2728414591 -2.0068292436
H -2.7202658074 7.7508928801 0.6659640546
H -1.9390054939 5.4277884374 0.7583526617
N -0.0789106619 -2.1158772212 0.1900040147
C -0.2548622123 -2.5033152323 1.4497052469
S -0.4704302952 -4.2225243868 1.6041704295
C -0.3327929048 -4.4103063776 -0.1294429789
C -0.1225652122 -3.1548309315 -0.6836520804
H -0.0166985235 -2.9551531588 -1.7418640472
N -0.1148224847 -0.2934919106 2.2209440291
C -0.2744135670 -1.5489168081 2.5418365174
C -0.5359059642 -1.9784022950 3.9680408705
C 0.2058106465 -1.0784232934 4.9825851035
C 0.0440476317 0.3598151248 4.5462275805
C -0.1099823949 0.6725676301 3.2480980052
H 1.2820467591 -1.3143239564 4.9315450301
H -1.6209949888 -1.8992720059 4.1426115674
H -0.2734229564 -3.0282010929 4.1282667934
H -0.1808371717 1.6975765666 2.9021532317
H 0.1105228805 1.1485456494 5.2898008548
C -0.2522240035 -1.3561772586 6.4072272701
C -1.4993757129 -0.9114258430 6.8697072944
C -1.9248206653 -1.2023074088 8.1639053301
C -1.1137186996 -1.9462794714 9.0339113020
C -1.5924743418 -2.3073218684 10.4333994886
N -2.3495753561 -1.2071625571 11.0064672191
C -2.4599604573 -3.5787725271 10.4266302539
C 0.1349607826 -2.3821092487 8.5749916015
C 0.5587936148 -2.0934932332 7.2786713046
H -2.1448431047 -0.3277457333 6.2166340281
H -2.8889075197 -0.8492254926 8.5169684055
H -0.6953429322 -2.5228190894 11.0440807540
H -2.8751327580 -1.4507711974 11.8409754393
H -1.8173163062 -0.3536246610 11.1488596534
H -1.9009866293 -4.4209007727 10.0096484771
H -2.7601897767 -3.8445490708 11.4466319961
H -3.3610772505 -3.4237979341 9.8251191627
H 0.7863291300 -2.9473033908 9.2371239423
H 1.5352536539 -2.4393268864 6.9470088434
C -0.4251169717 -5.7044301666 -0.7918014079
C -1.0279089344 -6.8124289957 -0.1637126884
C -1.1029613372 -8.0411859898 -0.8061503744
C -0.5871696351 -8.2078469831 -2.1004324401
C -0.7162973779 -9.5392370119 -2.8279490666
N -0.6745301350 -10.6403809103 -1.8691581426
C -2.0441511325 -9.5970325247 -3.6055220766
C 0.0181449289 -7.1071306164 -2.7253525788
C 0.1013751860 -5.8756664329 -2.0886240550
H -1.4624515125 -6.7086041027 0.8278285890
H -1.5594878357 -8.8949929194 -0.3165530736
H 0.1031372718 -9.5879245936 -3.5677202699
H -0.9586278576 -11.5154012830 -2.3032569951
H 0.2586430389 -10.7727216506 -1.4847370590
H -2.1223945806 -8.7635278904 -4.3097913013
H -2.1075572869 -10.5298089010 -4.1773883745
H -2.8918085500 -9.5551844065 -2.9142257028
H 0.4441223822 -7.2224218747 -3.7188965735
H 0.6081019718 -5.0532139885 -2.5852066815
N -1.9735798297 0.2700698638 -0.3460589628
C -2.1804303542 0.4314601961 -1.6494192713
S -3.8659755340 0.5449041754 -2.0641991560
C -4.3038298216 0.3330247432 -0.3844242260
C -3.1335056177 0.2133050194 0.3556048216
H -3.0984611952 0.0586922149 1.4261085035
N 0.1152326857 0.3166375108 -2.0947741609
C -1.0816648059 0.4734640778 -2.5932967066
C -1.3074339504 0.6199626276 -4.0814166742
C -0.1503541593 1.3772958062 -4.7748733676
C 1.1584006605 0.8808355742 -4.2055539788
C 1.2282013159 0.3882855218 -2.9574901977
H -0.2311369274 2.4471478952 -4.5207125076
H -1.3721084529 -0.3957257544 -4.5031741782
H -2.2630283129 1.1069760595 -4.2957292420
H 2.1604023247 0.0710408150 -2.5038564690
H 2.0617105666 0.9789857902 -4.8004209681
C -0.2494496189 1.2621372015 -6.2900511616
C 0.1393002622 0.0905764260 -6.9560152715
C 0.0166508987 -0.0176234952 -8.3392454702
C -0.4999363063 1.0439599243 -9.0970523477
C -0.6766551121 0.9151444793 -10.6035487736
N 0.4271573375 0.1653411736 -11.1778741551
C -2.0060261126 0.2282086577 -10.9644897620
C -0.8828462846 2.2155342679 -8.4327804006
C -0.7612503513 2.3227210035 -7.0482349859
H 0.5476901565 -0.7459645633 -6.3927125890
H 0.3271150146 -0.9253601532 -8.8477588048
H -0.7106524587 1.9395321850 -11.0209442665
H 0.2734002692 -0.1415947238 -12.1339499031
H 1.3382564912 0.6032490806 -11.0775913674
H -2.8500329085 0.7852907429 -10.5489086475
H -2.1327423724 0.1841966053 -12.0521978031
H -2.0294861873 -0.7914703675 -10.5673478138
H -1.2729148619 3.0559909630 -9.0017055413
H -1.0582905421 3.2461929611 -6.5562224742
C -5.6886484520 0.2934577616 0.0646532709
C -6.7418706233 0.0218171772 -0.8317016484
C -8.0583557276 -0.0197175938 -0.3934782342
C -8.3735874616 0.2014182982 0.9558870489
C -9.8101064575 0.1011067002 1.4505471803
N -10.7361908623 0.4782094260 0.3856854993
C -10.1184586250 -1.3386733470 1.9014162087
C -7.3273435841 0.4790535588 1.8492696948
C -6.0078839964 0.5252580958 1.4189537004
H -6.5286009878 -0.1830414076 -1.8782499824
H -8.8678495808 -0.2233271576 -1.0864643219
H -9.8966941318 0.7518669594 2.3395008025
H -11.6904427065 0.2171757013 0.6225027183
H -10.7243561365 1.4814988332 0.2142030921
H -9.4193007555 -1.6656798916 2.6768043767
H -11.1320584661 -1.3967303713 2.3140158588
H -10.0496120425 -2.0262561601 1.0522825019
H -7.5540914883 0.6743923852 2.8944970203
H -5.2249916413 0.7738408128 2.1297562483
