178
# extracted from Terachem optimization
Co -0.1850820678 -0.3238957050 -0.1121326713
O -0.0448081469 1.9404414138 -0.1729370757
C 1.2443728217 2.2789478648 -0.8358500665
O 1.5672555163 3.5988470310 -0.7321794218
C 1.5251369808 4.1357426242 0.6304809501
C 0.0768382859 4.0132474860 1.0265955666
C -0.6116538651 2.9564003815 0.5908667294
H 2.1382103402 3.4844723623 1.2659914690
H -1.6699377233 2.7858223828 0.7456228450
H -0.4406400393 4.7613347282 1.6102986564
H 1.0540636217 2.0815640571 -1.8949868795
N 1.8917895569 0.0786653219 0.0208731274
C 2.2993481868 1.3261870452 -0.2866634901
C 3.6216572598 1.7368801959 -0.1726782361
C 4.5899374135 0.8433729802 0.3062860983
C 4.1526392786 -0.4469174243 0.6369255038
C 2.8157447774 -0.7901135092 0.4745629911
H 3.8519532006 2.7685177515 -0.4186256769
H 2.4644543896 -1.7894535623 0.7148264900
H 4.8569756564 -1.1633418845 1.0410920393
C 6.0609539706 1.2589765725 0.5011229498
N 6.0557709939 2.7013043295 0.8413586452
N 6.5609160923 0.4954494114 1.6398556142
C 6.9319430361 0.9014551752 -0.7954768734
C 6.9273616181 -0.6153819567 -1.0772784067
C 6.3866996744 1.6313073659 -2.0401689276
C 8.3963183527 1.3513806217 -0.5848828340
H 6.9887622302 2.9611240572 1.1565960820
H 5.8603560858 3.2842248771 0.0278821215
H 7.5715163515 0.5777807484 1.7157779122
H 6.1669412473 0.8865961743 2.4951902476
H 5.9323390256 -0.9749290682 -1.3615996409
H 7.6009113627 -0.8357195542 -1.9125953014
H 7.2639019548 -1.1891935195 -0.2096831029
H 6.4072518358 2.7223492470 -1.9362115623
H 7.0070707496 1.3865925197 -2.9085107359
H 5.3607258688 1.3307713742 -2.2801460428
H 8.4773947331 2.4206488608 -0.3644909214
H 8.9054766704 0.7927442618 0.2084933489
H 8.9644979801 1.1686202616 -1.5025185231
C 2.2524959611 5.5321124940 0.5516012956
N 3.6428599774 5.1497255031 0.2210565291
N 1.8111255130 6.3390250701 -0.5744797487
C 2.1515097128 6.3886280189 1.8917414249
C 0.8512167758 7.2240714544 1.9758517122
C 2.2619618147 5.4835265605 3.1381129550
C 3.3169967289 7.4042528809 1.9248151194
H 4.1209236592 5.9906045381 -0.0977177391
H 4.1318619272 4.8259078753 1.0553353075
H 1.8999716887 5.7946296991 -1.4297225101
H 0.8377684393 6.6150654660 -0.4822662031
H -0.0677718279 6.6369404514 1.8865313192
H 0.8071685313 7.7322328112 2.9450192787
H 0.8328924030 7.9998467182 1.2047721575
H 3.1534010636 4.8432642911 3.1091503453
H 2.3448119049 6.1023627447 4.0376700215
H 1.3866927783 4.8369867062 3.2724512027
H 4.2895739262 6.9213045079 2.0615526152
H 3.3484478828 8.0009444501 1.0078906975
H 3.1814375262 8.0927915869 2.7659053090
O -0.3342430545 -2.5096000140 0.0703532148
C -1.1070745011 -2.8280546263 1.3002689513
O -0.9768805757 -4.1305966458 1.6823927114
C 0.3997338369 -4.6229998945 1.7627725561
C 0.9189407523 -4.5275765291 0.3515530749
C 0.5179118440 -3.5047574939 -0.4034039299
H 0.9660316772 -3.9375308689 2.4068759577
H 0.7773824039 -3.3376121824 -1.4418396811
H 1.5803692777 -5.2623883594 -0.0844138958
H -2.1523197088 -2.6885968999 1.0055271457
N -0.4705659264 -0.5496060443 1.9687968593
C -0.7287531584 -1.8124545345 2.3728319594
C -0.7302690827 -2.1943950551 3.7081289669
C -0.4406096448 -1.2477258433 4.7014057154
C -0.1650285762 0.0581650753 4.2724153456
C -0.1855514190 0.3639238251 2.9179473037
H -0.9142629120 -3.2402865745 3.9339933376
H 0.0352350947 1.3664295881 2.5659631511
H 0.0974724290 0.8159358232 5.0002482995
C -0.3832030086 -1.6213060860 6.1952675241
N 0.0830507967 -3.0261827489 6.2655330994
N 0.6160643210 -0.7488859550 6.8038179175
C -1.8002341443 -1.3724783596 6.8996714304
C -2.2020700952 0.1166226836 6.8529289769
C -2.9072003222 -2.1975020372 6.2109844763
C -1.7329551977 -1.8132502328 8.3802379478
H 0.3355770281 -3.2326179593 7.2303578869
H -0.6561202665 -3.6835274992 6.0189236157
H 0.5681135277 -0.7958928675 7.8182221669
H 1.5446396633 -1.0722887421 6.5337975425
H -2.3670395969 0.4632034055 5.8268134956
H -3.1416149506 0.2589889877 7.3976126107
H -1.4454642789 0.7581742467 7.3128664201
H -2.7070426036 -3.2752252667 6.2275019926
H -3.8553820721 -2.0445622388 6.7362256745
H -3.0615848230 -1.8955891683 5.1692489949
H -1.4576998852 -2.8670871555 8.4894765505
H -1.0392307109 -1.2104667934 8.9775469013
H -2.7199395667 -1.6907839086 8.8375645723
C 0.2980893119 -6.0024653854 2.5237112192
N -0.1189387863 -5.5873054430 3.8812886729
N -0.7892939247 -6.8369604183 2.0404580320
C 1.6504816945 -6.8447529165 2.5232468135
C 1.8225164273 -7.7044298524 1.2473620996
C 2.8788233016 -5.9248347014 2.6950195274
C 1.6226838287 -7.8384547070 3.7076901161
H -0.4501463765 -6.4207971171 4.3638379770
H 0.6795776684 -5.2346247839 4.4083657683
H -1.6561959018 -6.3048437680 2.0638445769
H -0.6366175593 -7.1405161401 1.0830752993
H 1.7723635891 -7.1405562324 0.3110761900
H 2.8020547038 -8.1939945612 1.2681961378
H 1.0692384858 -8.4966408704 1.2035202668
H 2.7892005445 -5.2724316170 3.5735567893
H 3.7775575998 -6.5327476223 2.8427834772
H 3.0621171707 -5.2889582020 1.8209268927
H 1.6997175164 -7.3369862852 4.6777045351
H 0.7099540164 -8.4421750402 3.6962974685
H 2.4754247794 -8.5217522702 3.6326139560
O -2.2771921818 -0.3183176209 -0.6600369475
C -2.5568801559 -1.0586389426 -1.9253851236
O -3.7729575080 -0.7501126708 -2.4516040830
C -4.0310396793 0.6900116561 -2.5652651294
C -4.0894661263 1.1578348550 -1.1343813283
C -3.2357132917 0.6123255911 -0.2684443721
H -3.1682535401 1.1426987375 -3.0703341767
H -3.2023899839 0.7889354745 0.8002299368
H -4.8297161250 1.8558848588 -0.7710130100
H -2.5924768605 -2.1096487110 -1.6227447178
N -0.1715071859 -0.6047841876 -2.2743511980
C -1.3748694031 -0.8056042579 -2.8508251937
C -1.5636366539 -0.8369562454 -4.2267300502
C -0.4735817626 -0.6417060389 -5.0842948105
C 0.7800563322 -0.4666937319 -4.4822724471
C 0.8869755394 -0.4582913403 -3.0965876715
H -2.5770862792 -0.9536268986 -4.5955705323
H 1.8459152098 -0.3104664046 -2.6109955210
H 1.6523722486 -0.2933889467 -5.1003726467
C -0.6448546047 -0.5612935930 -6.6131472072
N -2.0029665313 -0.0163015910 -6.8593465078
N 0.3535679884 0.3915638255 -7.0882091665
C -0.3895471120 -1.9835680392 -7.2995734867
C 1.0702272359 -2.4474853223 -7.1139784212
C -1.3214334166 -3.0565687475 -6.6993987975
C -0.6836824470 -1.8918946103 -8.8145187532
H -2.0554504837 0.2857352636 -7.8305922001
H -2.7233361383 -0.7296719414 -6.7486456749
H 0.4340039333 0.3593576217 -8.1013829482
H 0.0575116938 1.3353993735 -6.8409489738
H 1.3149733618 -2.6217165084 -6.0602842581
H 1.2217318502 -3.3952174200 -7.6416676373
H 1.7825809433 -1.7203867977 -7.5128069009
H -2.3834984293 -2.8079029433 -6.8106261797
H -1.1651476273 -4.0075245017 -7.2186855225
H -1.1218065866 -3.2299021328 -5.6363443947
H -1.7192605644 -1.6031840893 -9.0221947814
H -0.0203209179 -1.1956984453 -9.3406376470
H -0.5270529485 -2.8734677252 -9.2732284489
C -5.2808101839 0.8288416328 -3.5089531371
N -4.8144155986 0.2261883776 -4.7739664562
N -6.3949157917 -0.0084477315 -3.0891596209
C -5.7846329206 2.3326803363 -3.6974459420
C -6.6716570563 2.8437592222 -2.5370283181
C -4.5903993653 3.2933896453 -3.8778400272
C -6.6646307129 2.3963217438 -4.9692282515
H -5.6352351407 0.0619429528 -5.3532788319
H -4.2076100494 0.8669863274 -5.2845928422
H -6.0853615845 -0.9771952133 -3.0416328646
H -6.7378396192 0.2533852577 -2.1694108747
H -6.1491149249 2.9349027708 -1.5802742069
H -7.0332580467 3.8483791896 -2.7808197060
H -7.5557959576 2.2149925544 -2.3964385182
H -3.9204369150 2.9714655516 -4.6848580943
H -4.9532595432 4.2915708546 -4.1446492867
H -3.9933970374 3.4017823843 -2.9636938255
H -6.0861248987 2.2383956791 -5.8846765532
H -7.4651094302 1.6518719794 -4.9275479474
H -7.1258898295 3.3861108445 -5.0485556024
