133
# extracted from Terachem optimization
Cr -0.0169607768 0.0244975022 0.2937257893
O 0.1703619086 2.1081705913 0.1395302719
C 1.4441634039 2.5330387039 -0.3919839015
O 1.7764919122 3.6838573978 0.3176633359
C 0.5540145344 4.4136796160 0.5224041200
C -0.5255742562 3.3132887627 0.6019721260
H -0.8580875016 3.1426970104 1.6228470218
H -1.3776816094 3.4993476350 -0.0500721186
H 0.3842331642 5.0879797345 -0.3235255122
H 1.3075612146 2.7573123533 -1.4642784747
N 2.0231465029 0.2653169968 0.0414371270
C 2.4793125367 1.4466458019 -0.1849519362
C 3.9190602498 1.8554758592 -0.2917970119
C 4.8979060599 0.7682302633 0.1805250490
C 4.3809784998 -0.5945554752 -0.2865856825
C 2.9808557265 -0.8420488123 0.2749101915
H 4.9406493753 0.7762623492 1.2743048628
H 4.3557374769 -0.6260083163 -1.3835137804
H 5.0339869918 -1.4048237987 0.0461536150
H 4.1314092186 2.1070297316 -1.3423710853
H 4.0636544068 2.7823364756 0.2684809019
H 3.0230153801 -0.9957312379 1.3613217800
H 2.5457496507 -1.7532589873 -0.1405925228
C 6.3174268454 1.1486410233 -0.3261450609
O 6.3411516397 1.2520881193 -1.7302167383
O 6.5587377837 2.3995598678 0.2352774500
C 7.4078954166 0.1027118674 0.1261683444
O 7.1571495101 -0.2657195928 1.4233649379
O 7.3850036946 -0.9475474483 -0.7906565624
Cl 9.0996911139 0.8765898229 0.0304976110
H 6.7753868531 0.4563489790 -2.0860718753
H 7.3730779273 2.7521397479 -0.1654107397
H 7.9391848830 -0.6971730100 1.8090720382
H 8.1982736216 -1.4771952089 -0.7190034948
C 0.7649645221 5.2659377784 1.7963201064
O 0.7970758637 4.3869783180 2.8779670067
O 1.9398406435 6.0210354482 1.6688614423
C -0.3644329989 6.3378553101 1.9055898142
O -0.2514202715 7.3281994741 0.9724610781
O -1.5751962723 5.7189472885 1.7801256740
Cl -0.2266820918 7.1020715751 3.6383397239
H 0.8219632246 4.9351532141 3.6860033501
H 2.6795415830 5.4052375874 1.5302786269
H 0.6452485614 7.7083271416 1.0367370619
H -2.2642888864 6.4078564052 1.7490606527
O -0.3361159994 -1.9964175873 0.5101426263
C -0.7320081771 -2.3734654834 1.8431398679
O -0.0347242628 -3.5545942662 2.1005770330
C -0.0045880581 -4.3056361880 0.8708441572
C -0.1479206330 -3.2346921391 -0.2358849385
H 0.7464038443 -3.1298844315 -0.8423347373
H -1.0233239065 -3.4069876027 -0.8650133225
H -0.8401984333 -5.0121893534 0.8575544275
H -1.8213758133 -2.5488156428 1.8411450324
N -0.0154582178 -0.1490650582 2.3645345459
C -0.3552043104 -1.2947749064 2.8430598867
C -0.4585869383 -1.6767221140 4.2914938135
C 0.1158987425 -0.6273923802 5.2625354863
C -0.1519687720 0.7741964598 4.7046271521
C 0.4374511646 0.9017401074 3.3039323398
H 1.1969536511 -0.7771120166 5.3480937957
H -1.2335050801 0.9578839098 4.6671937843
H 0.2853732321 1.5457165979 5.3419081279
H -1.5262749209 -1.8297995396 4.5133243238
H 0.0111851595 -2.6525444996 4.4413424921
H 1.5331641845 0.8349604427 3.3328303915
H 0.2067418838 1.8679262131 2.8577132276
C -0.4881470944 -0.8993030604 6.6701530427
O -1.8912834677 -0.7678462285 6.6514433947
O -0.1536177619 -2.2204801425 6.9476656235
C 0.0934845449 0.0739346212 7.7623394155
O 1.4522097820 0.1548661171 7.6077732911
O -0.5797069134 1.2893255189 7.6387693286
Cl -0.2953880825 -0.5975202885 9.4571824761
H -2.1155411586 0.1002941751 7.0314204818
H -0.6234788453 -2.4820977216 7.7595114728
H 1.8623371973 0.5411930921 8.4009393573
H -0.4525828416 1.8281152353 8.4393317197
C 1.3167304924 -5.1099093815 0.8589217311
O 2.3501777111 -4.2082224179 0.6004688910
O 1.4814179660 -5.7937482827 2.0697679025
C 1.2070519177 -6.2457080520 -0.2087911316
O 0.3563418827 -7.2441264511 0.1685552310
O 0.7827467474 -5.7017352902 -1.3887082769
Cl 2.9482859118 -6.9587335178 -0.4308158666
H 3.1636784833 -4.7377425778 0.4918677306
H 1.4257001900 -5.1466905016 2.7938664122
H 0.6355017219 -7.5736403735 1.0436713862
H 0.5688182589 -6.4338776177 -1.9961673393
O -2.1238358841 0.1669344375 0.0946002593
C -2.5857102520 -0.1816847942 -1.2240273554
O -3.4883204730 0.8186440547 -1.5794747898
C -4.2330795669 1.1213604672 -0.3875213185
C -3.2112349821 0.8930515403 0.7483373878
H -2.8070319563 1.8199979177 1.1453338634
H -3.6165319177 0.2776985884 1.5522197831
H -5.0828426855 0.4350654773 -0.3040688734
H -3.0945524133 -1.1591346640 -1.1492437366
N -0.2445932844 -0.2583022332 -1.8111194652
C -1.4586387285 -0.2691594306 -2.2389917094
C -1.9161260996 -0.4021789209 -3.6645173522
C -0.7846819857 -0.2189336655 -4.6862721765
C 0.4469229042 -0.9610372327 -4.1636942471
C 0.8535920126 -0.4171926495 -2.7933626038
H -0.5553921809 0.8478962641 -4.7791458174
H 0.2204255074 -2.0327122581 -4.0942755608
H 1.2989306669 -0.8579175613 -4.8403510315
H -2.3687545692 -1.3975935156 -3.7913237102
H -2.7252212234 0.3108714292 -3.8399575544
H 1.3287979066 0.5662544146 -2.8962956736
H 1.5986393347 -1.0717745217 -2.3314038878
C -1.3053134908 -0.6905066165 -6.0735225638
O -1.6354360386 -2.0594000524 -6.0529360401
O -2.4598907964 0.0582022747 -6.2829788065
C -0.2546311262 -0.4364120086 -7.2159099361
O 0.2769930540 0.8178469943 -7.0625764902
O 0.6780308203 -1.4717402232 -7.1656552239
Cl -1.1015298665 -0.5419800912 -8.8728289496
H -0.9065933778 -2.5524604428 -6.4704106427
H -2.8965186479 -0.2848954614 -7.0829243506
H 0.7140285351 1.1036299638 -7.8833303006
H 1.1942778627 -1.5026135556 -7.9902214523
C -4.7821930888 2.5557919109 -0.5564786333
O -3.6944433920 3.4280395532 -0.5118602823
O -5.5024347666 2.6562146589 -1.7548988770
C -5.8513887146 2.8385421901 0.5486584133
O -7.0174092332 2.1624822104 0.3378804995
O -5.3339557586 2.5018286713 1.7660602138
Cl -6.1978329947 4.7064320788 0.5084629433
H -4.0619615013 4.3332045569 -0.5120057789
H -4.8988225048 2.4566368806 -2.4906989936
H -7.3315380734 2.3630581697 -0.5642118439
H -6.0559943894 2.5397075083 2.4204695891
