133
# extracted from Terachem optimization
Cr 0.2879046200 0.2110635620 0.2656053215
N 0.3486100718 2.2939323682 0.4805180885
C 1.5450916580 2.8166175257 0.6350936803
S 1.9208112240 4.4978321165 0.9005526324
C 0.4140075986 5.2907430304 0.1476338927
C -0.7911427897 4.4556258900 0.4795880908
C -0.7872871572 3.1137777727 0.5615904481
H 0.3539286077 6.2472156367 0.6747920641
H -1.7102550329 2.5648758491 0.7003532975
H -1.7391493930 4.9769340276 0.5656120017
N 2.3728059469 0.5921332482 0.4610601497
C 2.6544647587 1.8555097210 0.6446476527
O 3.8427126145 2.3595057027 0.9279139510
C 5.0639747271 1.5647091034 0.6971780406
C 4.7131733636 0.1060874479 0.7731848996
C 3.4485537045 -0.3099588448 0.6246647179
H 5.7154676971 1.8572759145 1.5243513791
H 3.1840526441 -1.3600624292 0.6361841253
H 5.5140735899 -0.6091769232 0.9233949922
C 5.7100010727 1.9923998887 -0.6403350419
C 7.0635416908 1.2798333893 -0.8320971431
C 5.8513949698 3.5103607101 -0.7402743514
C 6.4971289936 4.2446632293 0.1757764406
N 5.1876351732 4.0620899855 -1.8560863728
H 5.0258066909 1.6637770534 -1.4355927467
H 7.5313334129 1.6075417713 -1.7650202542
H 7.7548576199 1.5251784504 -0.0193795970
H 6.9523321823 0.1913254774 -0.8810103421
H 6.6172082805 5.3186568380 0.0688152664
H 6.9201871514 3.8008432050 1.0702609251
H 5.3447216484 3.5431225286 -2.7167055345
H 5.4295071831 5.0372749884 -2.0110479703
C 0.5544988720 5.5824517151 -1.3749921517
C 1.8099672331 6.4016718498 -1.7100171160
C -0.7326990435 6.2635584390 -1.8488469148
C -1.0939727899 7.4880837379 -1.4348724259
N -1.5432219804 5.4435345531 -2.6542001276
H 0.6251318673 4.6089618932 -1.8794336269
H 1.8137730975 6.6543066983 -2.7749120694
H 1.8356940336 7.3433565185 -1.1512066333
H 2.7234155224 5.8392475680 -1.4911114601
H -2.0073689343 7.9631365454 -1.7808327322
H -0.4854715987 8.0588047097 -0.7422700130
H -1.0302993506 4.9445412981 -3.3748422634
H -2.3278336037 5.9373183545 -3.0706133479
N 0.5053583684 -1.8652231909 0.3751023702
C 0.6536158359 -2.3530670801 1.5877431208
S 0.9336160127 -4.0219620218 2.0090138395
C 0.1722936678 -4.8445242414 0.5299975653
C 0.5438844652 -4.0582601187 -0.6979614210
C 0.6136684036 -2.7154341589 -0.7341602068
H 0.6733292893 -5.8160336186 0.5174053031
H 0.7728843773 -2.1879876972 -1.6666189744
H 0.6703401602 -4.6124600111 -1.6217802404
N 0.4390313795 -0.1137462160 2.3642433270
C 0.6419305200 -1.3679816911 2.6729644490
O 0.9272817043 -1.8430187745 3.8729836403
C 0.6818842864 -1.0304018056 5.0795746376
C 0.7112366042 0.4222701035 4.6993423521
C 0.5671881990 0.8110862147 3.4259478961
H 1.5231853408 -1.2820692049 5.7302533722
H 0.5506151477 1.8557961158 3.1422690927
H 0.8293480600 1.1570756889 5.4878347998
C -0.6351169484 -1.4925210488 5.7421136950
C -0.8788203025 -0.7219724246 7.0549901590
C -0.6528927908 -3.0042077855 5.9641929741
C 0.2986350647 -3.6512758684 6.6510702538
N -1.7339237458 -3.6519680544 5.3325124354
H -1.4405688899 -1.2429984475 5.0367473455
H -1.7860765951 -1.0905603454 7.5423291013
H -0.0520444668 -0.8671879125 7.7582980078
H -1.0070991737 0.3520237954 6.8830168478
H 0.2489911488 -4.7216600151 6.8278439681
H 1.1646525662 -3.1386555006 7.0552146470
H -2.6203256913 -3.1663513350 5.4436974800
H -1.8428344434 -4.6169121443 5.6326634210
C -1.3578006060 -5.0621251724 0.6701617890
C -1.7408715559 -5.8120173427 1.9600864672
C -1.9055679205 -5.7827314720 -0.5631389795
C -1.2756979839 -6.8052590208 -1.1672788975
N -3.1210020005 -5.2547505972 -1.0192899160
H -1.8193738629 -4.0656294110 0.6914249476
H -2.8172135212 -6.0135025434 1.9656993088
H -1.2251119115 -6.7766671212 2.0170744362
H -1.5064812771 -5.2248757562 2.8543525321
H -1.7206545783 -7.3293698019 -2.0082322168
H -0.3123473002 -7.1708148605 -0.8323510066
H -3.7714627157 -4.9520682049 -0.2938329655
H -3.5949431439 -5.8684289639 -1.6759709496
N -1.7399784478 -0.0561064488 -0.0230577841
C -2.1852079732 0.1893318202 -1.2364146017
S -3.8392942377 0.2527413610 -1.7829234969
C -4.7629462133 -0.6111501805 -0.4044060951
C -3.9537271478 -0.6240204506 0.8640343519
C -2.6374522837 -0.3977762036 0.9988974877
H -5.6368005487 0.0327566694 -0.2557232834
H -2.1676525072 -0.4676748177 1.9731075540
H -4.5089693907 -0.8861976263 1.7582796632
N 0.0996486307 0.5167138251 -1.7601674137
C -1.1354437464 0.4941272660 -2.2062421751
O -1.5172835921 0.8178695452 -3.4298369484
C -0.5266686000 0.8131335872 -4.5189371319
C 0.8112150832 1.1982448556 -3.9544658183
C 1.0756483849 1.0008464623 -2.6567479131
H -0.9067204314 1.5735911524 -5.2052237259
H 2.0347968780 1.2142586559 -2.2021668864
H 1.5648751550 1.5990303295 -4.6229371864
C -0.5360859722 -0.5593477049 -5.2391163402
C 0.3684610489 -0.5081779142 -6.4840113375
C -1.9633112796 -0.9929140633 -5.5630991444
C -2.7155741310 -0.3822950746 -6.4890931894
N -2.4384675938 -2.0183427408 -4.7216926882
H -0.1119279186 -1.2869313339 -4.5323701523
H 0.3356285105 -1.4666294597 -7.0087259197
H 0.0353967530 0.2611699486 -7.1881211575
H 1.4116396199 -0.3050940770 -6.2195077223
H -3.7286060258 -0.7069408729 -6.7085340361
H -2.3513721659 0.4689457443 -7.0535770676
H -1.7898185989 -2.7945525949 -4.6189849297
H -3.3443341247 -2.3760905944 -5.0114107662
C -5.2629596438 -2.0111402575 -0.8633682146
C -6.1397083560 -1.9058660237 -2.1304966316
C -6.0348895148 -2.7502458119 0.2311421410
C -6.7872999370 -2.1641116750 1.1730179396
N -5.8705037379 -4.1556713678 0.1543118948
H -4.3746194632 -2.6118912144 -1.0965475125
H -6.5205671228 -2.8901441317 -2.4227378284
H -7.0063106629 -1.2611125873 -1.9493224017
H -5.5758939823 -1.5117437073 -2.9817706312
H -7.3680602780 -2.7474670975 1.8818972132
H -6.8669507513 -1.0869706519 1.2638987460
H -6.0006488057 -4.5067403419 -0.7929113658
H -6.5137552343 -4.6515091532 0.7675237075
