187
# extracted from Terachem optimization
Cr -0.2290677542 -0.1914533481 -0.1495342847
O 0.3676497694 2.3183515911 -0.1070300234
C 1.7715552420 2.3607019688 -0.2761374223
O 2.3264608882 3.5001324032 0.3258972177
C 1.9234338998 4.7263822249 -0.3318498004
C 0.3775025310 4.7576148537 -0.3415427999
C -0.2511022494 3.4340440548 -0.7907467358
H 2.2693188303 5.4888870424 0.3665188615
H 2.0158371101 2.3710247429 -1.3457876471
H -1.3080906160 3.3856788947 -0.5209617025
H -0.1375317980 3.2908746364 -1.8679479061
H -0.0016631420 5.5668076688 -0.9733462731
H 0.0524219455 4.9714415328 0.6830309765
N 1.8388105672 -0.0509674980 0.1522489049
C 2.4036171510 1.1162493985 0.3385774374
N 3.5731942163 1.3158727563 0.9588334419
C 4.4710497552 0.2162031693 1.3642668370
C 4.1573084496 -0.9586686444 0.4281122400
C 2.6489154337 -1.2338909651 0.4991238540
H 4.2012804438 -0.0888604289 2.3814547896
H 4.4382919237 -0.7217281988 -0.6055076288
H 4.6908811683 -1.8634447322 0.7247932996
H 4.0340729659 2.2066541862 0.7849944276
H 2.3733760232 -1.5860356358 1.5020746138
H 2.3775233927 -2.0362028388 -0.1925316319
C 5.9073273652 0.8362793585 1.4976413443
N 6.1062725721 1.7939288942 0.3845223583
N 5.8799117396 1.5726932213 2.7665357243
C 7.1084298075 -0.1989427332 1.6240349019
C 6.8222572768 -1.2742200545 2.6907928993
C 7.4718698024 -0.8580628687 0.2825971616
N 8.2744920638 0.6358816452 2.0115780150
H 7.0446962902 2.1808433336 0.5027387598
H 6.1110308193 1.3139152856 -0.5171280906
H 6.7455020159 2.1056148510 2.8389953683
H 5.1241590721 2.2561787181 2.7598647914
H 6.0019394121 -1.9418849305 2.4063566441
H 7.7124971701 -1.8963914544 2.8350657224
H 6.5621272670 -0.8057021733 3.6443095281
H 7.8186445843 -0.1167667402 -0.4446952987
H 8.2889643127 -1.5722349025 0.4373296992
H 6.6431436223 -1.4127823072 -0.1611622025
H 8.3832017124 0.6385594229 3.0243212264
H 9.1334605876 0.2395495337 1.6363745612
C 2.6635471923 4.9500285400 -1.7060747995
N 3.7848229446 4.0120315889 -1.8110642123
N 1.7689362106 4.5817401542 -2.8286423620
C 3.1798319080 6.4596550888 -1.8437068132
C 2.0501720306 7.4974428781 -1.6812858777
C 4.2964070142 6.7749922811 -0.8315065479
N 3.7954087355 6.5261040674 -3.1893010184
H 4.4028101680 4.3853565780 -2.5358094902
H 4.3222990527 3.9848599294 -0.9477111960
H 1.1361524056 5.3463823917 -3.0611453424
H 2.3540454486 4.4337184683 -3.6495348427
H 1.6074600482 7.4898714509 -0.6785991807
H 2.4474786776 8.5040776016 -1.8507714277
H 1.2402710315 7.3495255203 -2.4072618076
H 5.1756050801 6.1474863294 -1.0013918600
H 4.6093330512 7.8202458151 -0.9369002531
H 3.9754766324 6.6447131015 0.2064250380
H 3.0896713945 6.7248189054 -3.8960867198
H 4.4610547933 7.2956463161 -3.2337437413
O -0.3011471251 -2.6443150867 0.3147002041
C -0.8320227707 -2.8445016057 1.6150739386
O -0.2621379695 -3.9660396535 2.2346012983
C -0.5656174134 -5.2159704220 1.5669119925
C -0.1495576615 -5.0684221379 0.0865897307
C -0.6445600296 -3.7638929294 -0.5400111917
H 0.1332247968 -5.9037330845 2.0438280693
H -1.9208869063 -2.9789431148 1.5485359748
H -0.1453139554 -3.5649230673 -1.4911213382
H -1.7290328519 -3.7839194546 -0.6775470602
H -0.4969563867 -5.9143880513 -0.5143595986
H 0.9460399425 -5.0789010854 0.0521317691
N -0.5627559279 -0.4265605211 1.9237132911
C -0.5267372460 -1.6161712169 2.4682448924
N -0.2984718329 -1.8659382114 3.7625190278
C -0.1461904680 -0.8062702338 4.7783487696
C -0.9483192599 0.3981075785 4.2678202635
C -0.4768969133 0.7242468950 2.8424149790
H 0.9099470073 -0.5159323379 4.8066466504
H -2.0234564761 0.1787523839 4.2628883377
H -0.7877857969 1.2779019606 4.8935826933
H -0.5839049742 -2.7752073748 4.1151127187
H 0.5573281984 1.0922910361 2.8613710775
H -1.0833361836 1.5323436167 2.4214792543
C -0.4214478161 -1.4753226652 6.1679316648
N -1.5924565471 -2.3689978818 6.0274235734
N 0.7737346157 -2.2857989917 6.4393834171
C -0.5527076785 -0.4812892773 7.4008266316
C 0.6074271448 0.5315192589 7.4359826644
C -1.9066929200 0.2490633505 7.4418419758
N -0.5210408464 -1.3650379504 8.5945666310
H -1.7581338791 -2.7727165242 6.9513631515
H -2.4343751860 -1.8377549343 5.7989373202
H 0.5858720043 -2.8517737434 7.2658213373
H 0.9402474988 -2.9409318554 5.6773048004
H 0.5827450960 1.2368326106 6.5974017153
H 0.5534902954 1.1239042152 8.3562012860
H 1.5683873990 0.0096741472 7.4112445448
H -2.7340355629 -0.4536024414 7.5876344416
H -1.9150198681 0.9455889070 8.2877175211
H -2.1082399546 0.8348955724 6.5433041262
H 0.4290181436 -1.4353095990 8.9552850919
H -1.0784085885 -0.9638762334 9.3457651867
C -2.0331889949 -5.7201203905 1.8578082128
N -2.6231930494 -4.9033659300 2.9212450151
N -2.8909072856 -5.4712098877 0.6763134339
C -2.0442811872 -7.2690747793 2.2645136201
C -1.3875071418 -8.1713201214 1.1986941407
C -1.3469624197 -7.5046692583 3.6168520709
N -3.4751729600 -7.5984068315 2.4557208516
H -3.4354389550 -5.4229830158 3.2634702405
H -1.9813472980 -4.8168725586 3.7050739265
H -2.7778618797 -6.2085732556 -0.0183426591
H -3.8605842999 -5.5167129483 0.9854639176
H -0.3197335859 -7.9617882565 1.0650467191
H -1.4745901774 -9.2212534148 1.4984975644
H -1.8729115727 -8.0789213009 0.2186967068
H -1.8699397193 -6.9919219988 4.4292093037
H -1.3384504398 -8.5753393068 3.8511863059
H -0.3042303344 -7.1728874607 3.6151144169
H -3.8999270604 -7.8784457568 1.5734465931
H -3.5732204757 -8.3977617772 3.0792044488
O -2.3174807542 0.0362021061 -0.5760361352
C -2.6764484334 0.0203495746 -1.9721820101
O -3.6132246812 1.0136586545 -2.2364164876
C -4.9048343755 0.7258695657 -1.6443153551
C -4.6767567907 0.5584824711 -0.1242919349
C -3.4724092697 -0.3217677523 0.2352049405
H -5.4514429821 1.6569167113 -1.8011582804
H -3.0908028248 -0.9684142509 -2.2055054240
H -3.1656711790 -0.1572291886 1.2677256339
H -3.6801840702 -1.3817424999 0.0743213742
H -5.5623519606 0.1557983918 0.3761942438
H -4.5063349204 1.5603674993 0.2854226364
N -0.2641395572 0.0545306374 -2.2323236717
C -1.4248633147 0.2697623592 -2.7918828070
N -1.6263222850 0.6513768674 -4.0605095474
C -0.4958101407 0.8443742637 -4.9925955134
C 0.5783052331 -0.1783776565 -4.5914551203
C 0.9191859923 0.0532402888 -3.1118368248
H -0.0849400222 1.8433516697 -4.8101832931
H 0.2169150619 -1.2032894912 -4.7424972925
H 1.4924790309 -0.0538392851 -5.1743155151
H -2.5136985913 0.3988311584 -4.5004141970
H 1.4469603234 1.0084298895 -3.0021835383
H 1.5961619601 -0.7252576169 -2.7479734744
C -1.1032347171 0.9103714483 -6.4331014431
N -2.1199299766 -0.1551884484 -6.5489090951
N -1.7654738143 2.2206078288 -6.4959072722
C -0.0566902513 0.8980560345 -7.6280599180
C 1.0944256352 1.8950171346 -7.3864690110
C 0.5054672947 -0.5055123117 -7.9153700940
N -0.8518911806 1.2808102654 -8.8216122890
H -2.5263722773 -0.0763923053 -7.4825361129
H -1.6911276613 -1.0810730706 -6.5080678315
H -2.3071492477 2.2588334360 -7.3581451226
H -2.4328427417 2.3094876391 -5.7315121214
H 1.7349903371 1.6039099424 -6.5466760559
H 1.7314626473 1.9458356725 -8.2764863918
H 0.6976945767 2.8937857463 -7.1816077769
H -0.2788321174 -1.1835180638 -8.2672923518
H 1.2600896678 -0.4397671669 -8.7075033282
H 0.9887318464 -0.9609460885 -7.0489000437
H -0.8048118098 2.2880670957 -8.9657822457
H -0.4579177008 0.8562872860 -9.6586248589
C -5.6564529931 -0.4204771897 -2.4106300870
N -5.0874317954 -0.5207721697 -3.7584983712
N -5.3466159170 -1.7204656764 -1.7736266600
C -7.2392086890 -0.1699635028 -2.4893914148
C -7.9002855368 -0.0233023906 -1.1045450092
C -7.5841189200 1.0694787056 -3.3362003851
N -7.7625164481 -1.3502381488 -3.2164367095
H -5.7413623895 -1.0913697367 -4.3008665321
H -5.0756959486 0.3972319809 -4.1974685225
H -5.9225923124 -1.8635947380 -0.9447788763
H -5.6024695543 -2.4582011859 -2.4289176309
H -7.5706977399 0.8743634855 -0.5682338649
H -8.9866645866 0.0532106982 -1.2218586116
H -7.7103208845 -0.8913927932 -0.4601988144
H -7.2523886633 0.9531413104 -4.3722100048
H -8.6700163043 1.2167306198 -3.3527151628
H -7.1473509406 1.9892842379 -2.9358364714
H -8.0302536602 -2.0895000672 -2.5693546872
H -8.6075400241 -1.1064286005 -3.7292564713
