133
# extracted from Terachem optimization
Cr 0.0864258756 0.0337411724 0.0935891344
O 0.3290490923 2.0107485773 -0.1789249550
C 1.7211661810 2.4558259857 -0.1489579325
O 1.7313041963 3.5099102777 0.7352917859
C 0.5784324726 4.3106342146 0.3703080404
C -0.4754977860 3.2584595182 -0.0526060860
H -1.2320660246 3.0951018469 0.7055087678
H -0.9401923850 3.4583507233 -1.0154667580
H 0.8547753042 4.9657225311 -0.4613918659
H 1.9789568803 2.7766660580 -1.1728388834
N 2.0934581816 0.1490669215 0.3472106180
C 2.6227373091 1.3254627008 0.2889639298
C 4.0472347955 1.6698890293 0.5627829792
C 4.8794617285 0.5140964000 1.1449666582
C 4.4269547623 -0.7924291204 0.4900611637
C 2.9338324879 -1.0244713164 0.7128172237
H 4.7196613720 0.4563493037 2.2260074351
H 4.6390478424 -0.7590022986 -0.5857902396
H 4.9646725428 -1.6505186525 0.8988152880
H 4.4987378132 1.9972890579 -0.3889218077
H 4.0741559924 2.5572681955 1.2052198975
H 2.7094236818 -1.2557792483 1.7608745861
H 2.5874844295 -1.8777109629 0.1299250474
C 6.3776282620 0.8797328799 0.9244079206
O 6.6305760977 1.0705335644 -0.4473053606
O 6.5251619861 2.0834295022 1.6040251994
C 7.3488201312 -0.2265242478 1.4795607976
O 6.8916872808 -0.6352225784 2.7089200220
O 7.3967933696 -1.2381195197 0.5185332492
Cl 9.0485842632 0.4768164278 1.6465108078
H 7.1335609115 0.3032406169 -0.7760080115
H 7.4158643905 2.4336391837 1.4206677934
H 7.6093148501 -1.0459031267 3.2224331095
H 8.1606838714 -1.8208892624 0.6792137818
C 0.2118395779 5.1900335744 1.5909339017
O -0.4075494451 4.3578795675 2.5263122165
O 1.3534750867 5.8177736599 2.0923757263
C -0.6898250212 6.3761764407 1.1041104930
O 0.0122985828 7.3045798911 0.3913257995
O -1.6871870800 5.8729052315 0.3060528437
Cl -1.4255015893 7.1649248184 2.6360605578
H -0.7882410990 4.9380784435 3.2161512013
H 1.9448334515 5.1467832524 2.4721506911
H 0.7144764807 7.6838112090 0.9526363996
H -2.0807956248 6.6291061149 -0.1702946530
O -0.1618367046 -1.9491263650 0.2831107111
C -0.5969599758 -2.3883058749 1.6053609933
O 0.1961931890 -3.4823056896 1.8786770483
C 0.2153953154 -4.2588781768 0.6572123766
C 0.1418114055 -3.1909499229 -0.4640611988
H 1.0857128095 -3.0547111752 -0.9829059624
H -0.6703059946 -3.3728373877 -1.1667597729
H -0.6598882854 -4.9154180231 0.6389381223
H -1.6621518971 -2.6622360085 1.5201566350
N -0.1398729651 -0.1044235172 2.1504913170
C -0.4177234959 -1.2754998298 2.6134696973
C -0.6455030287 -1.6425224539 4.0423213833
C -0.3711396950 -0.5144177489 5.0549229770
C -0.7111446442 0.8353342331 4.4151451511
C 0.0422877355 1.0263828611 3.1010467275
H 0.6855641313 -0.5314145280 5.3375511514
H -1.7914292498 0.8969421594 4.2353807825
H -0.4477403759 1.6622770631 5.0784300911
H -1.6959383227 -1.9669234903 4.1216994088
H -0.0609675289 -2.5414267981 4.2673130203
H 1.1228734042 1.1139285011 3.2734007071
H -0.2743388210 1.9413659783 2.5996166907
C -1.1939512044 -0.8444557368 6.3360286695
O -2.5710784546 -0.8205627556 6.0459109946
O -0.8030306172 -2.1402489454 6.6565459549
C -0.8893693696 0.1546300253 7.5117938321
O 0.4665475938 0.3585371795 7.5713765547
O -1.6372654243 1.3085500614 7.2716972674
Cl -1.4817039042 -0.5734674629 9.1068178838
H -2.9521827222 -0.0174173422 6.4448781212
H -1.3485530691 -2.4518196485 7.4014470834
H 0.7262304160 0.6888496523 8.4492491687
H -1.6764999605 1.8590881049 8.0743621141
C 1.4860777362 -5.1410428239 0.6724736229
O 2.5802653733 -4.2927423904 0.4798479991
O 1.5573471252 -5.8653276014 1.8616236375
C 1.3432884019 -6.2319025772 -0.4412635235
O 0.3929957704 -7.1659598820 -0.1414054128
O 1.0003064152 -5.5988884834 -1.6092059670
Cl 3.0163815586 -7.0522832909 -0.6202545724
H 3.3580235415 -4.8661474980 0.3268930903
H 1.7095101946 -5.2516077308 2.5997307479
H 0.6508421744 -7.6476528882 0.6668323778
H 0.7772402780 -6.2849341439 -2.2666108151
O -1.9768657535 0.0976979268 -0.1476526074
C -2.4018530858 -0.0255055586 -1.5381344584
O -3.1805711372 1.0913092790 -1.7673864898
C -4.0384866196 1.1797232240 -0.6037128085
C -3.1052584245 0.7500143275 0.5530029739
H -2.7154402520 1.5952158431 1.1111643433
H -3.5606375749 0.0185200645 1.2183954348
H -4.8755244702 0.4841730802 -0.7233022566
H -2.9914457137 -0.9553636781 -1.6120248723
N -0.0367246209 -0.1877853978 -1.9564675988
C -1.2136636078 -0.1021027440 -2.4770739375
C -1.5387160066 -0.1220441160 -3.9343388068
C -0.3105899329 -0.0286696354 -4.8561529859
C 0.8288266611 -0.8434913486 -4.2390255768
C 1.1536638947 -0.3301673847 -2.8371329157
H -0.0033703555 1.0177003840 -4.9491359924
H 0.5451783560 -1.9021773371 -4.1934570972
H 1.7356775434 -0.7796597475 -4.8447892552
H -2.0803946962 -1.0591954636 -4.1434445676
H -2.2622977308 0.6744442394 -4.1404211370
H 1.6301134882 0.6576506814 -2.8792807109
H 1.8538861895 -0.9992807064 -2.3274492164
C -0.7613750153 -0.4959658727 -6.2702994605
O -1.2443901869 -1.8173327289 -6.2094674449
O -1.7958303548 0.3760000073 -6.5892177365
C 0.4075029949 -0.4188771208 -7.3217846445
O 1.0906913456 0.7610343417 -7.1406065079
O 1.1832353186 -1.5629263891 -7.1448591323
Cl -0.3027657455 -0.4687545612 -9.0286411890
H -0.6033069085 -2.4022027639 -6.6524544122
H -2.1960413416 0.0849639476 -7.4286575982
H 1.5253627502 1.0371024749 -7.9662884442
H 1.8110221312 -1.6622094781 -7.8833900325
C -4.6059275672 2.6169294909 -0.5270258276
O -3.5265476859 3.4569589727 -0.2617239173
O -5.2779914437 2.9262197350 -1.7122264441
C -5.7209243603 2.6565643140 0.5712830591
O -6.8561569401 1.9999845086 0.1940721547
O -5.2202092473 2.0752279185 1.7082270992
Cl -6.1016978812 4.4644842866 0.8924823467
H -3.8739801178 4.3210294192 0.0361339332
H -4.6268220579 3.0696841373 -2.4190126875
H -7.2219197300 2.4186724197 -0.6079829770
H -5.9578841894 1.9727143702 2.3391140675
