142
# extracted from Terachem optimization
Cr 0.3097878590 0.2968824224 0.2209578162
N 0.4786594529 2.7061339802 0.7372779432
C 1.7172329211 3.0593053280 0.8572660635
S 2.2848379258 4.6030436870 1.4899552299
C 0.8437877280 5.6869935625 1.0775512740
C -0.4246899621 4.9089642687 1.2815487875
C -0.5454803378 3.5809332469 1.1029378196
H 0.9071761017 6.4871643748 1.8197469390
H -1.5113812278 3.0990398544 1.2202958502
H -1.3034084919 5.4855724448 1.5471319146
N 2.3495507179 0.8055180290 0.2934953997
C 2.7529769335 2.0406129279 0.5071139652
N 4.0385987061 2.4153917991 0.4914415739
C 5.1565853297 1.5584641369 0.0625320879
C 4.6634818774 0.1406575393 -0.0107855706
C 3.3594865410 -0.1523260818 0.0765376717
H 5.9634671410 1.6534263486 0.7954991779
H 4.2517057814 3.4080618490 0.4940403045
H 3.0071048383 -1.1766799917 0.0088954558
H 5.3971629287 -0.6398719585 -0.1639743861
C 5.7109427611 2.1335687115 -1.2884882507
O 4.7565068783 2.0358561355 -2.3237458996
O 5.9187258411 3.5016634830 -1.0165698910
C 7.0512548716 1.4578855612 -1.7345486574
O 7.8781872062 1.2105259698 -0.6136775307
O 6.6491463514 0.1979840905 -2.2351696739
C 7.7866940893 2.2696440744 -2.8014706247
H 4.9281478774 1.1834922786 -2.7660405435
H 5.8083608834 3.9799677734 -1.8557207736
H 8.4309679235 1.9915967276 -0.4498482960
H 7.4510845931 -0.3040074214 -2.4602575737
H 7.1408745831 2.4438835486 -3.6666877933
H 8.1150940188 3.2373812338 -2.4100201354
H 8.6719575514 1.7168305887 -3.1334742442
C 1.0312583951 6.3738493832 -0.3204953530
O 2.3773559221 6.7406627853 -0.5084925458
O 0.6968587493 5.4367242067 -1.3093747016
C 0.1397578043 7.6570268899 -0.4431372344
O -1.2021484612 7.3823646388 -0.0797226229
O 0.6650187804 8.5226233727 0.5356108105
C 0.2055668529 8.2753322004 -1.8420611716
H 2.4964039586 7.6154017175 -0.0928078456
H 1.2190192640 5.6726645041 -2.0946955453
H -1.6311253570 6.9392719914 -0.8300279817
H 0.1333136441 9.3365429781 0.5498622999
H 1.2368767485 8.5082890419 -2.1185947062
H -0.2116204005 7.5985093481 -2.5952032062
H -0.3808884953 9.1998695753 -1.8574496982
N 0.2717020176 -2.2114843948 0.2464861668
C 0.5047894494 -2.6677392963 1.4273148714
S 0.7826493545 -4.3769769105 1.8205701712
C -0.1833738323 -5.1833562220 0.4620385036
C -0.0630279971 -4.3823824221 -0.8015984895
C 0.1610921343 -3.0580783653 -0.8570760955
H 0.3362205793 -6.1338632578 0.3167227269
H 0.2030600016 -2.5410722888 -1.8104553340
H -0.2009841698 -4.9314025085 -1.7263667408
N 0.4328874152 -0.3987131539 2.2609030662
C 0.5089657600 -1.6823253352 2.5512482954
N 0.6091928903 -2.1577772909 3.8030566994
C 0.3548688161 -1.3668010779 5.0175455993
C 0.4407941267 0.0850165355 4.6482654412
C 0.4680481443 0.4771711691 3.3679684987
H 1.1166321530 -1.6244872486 5.7592030329
H 0.5266111419 -3.1599738560 3.9414737554
H 0.5327300126 1.5244259207 3.1036277810
H 0.4695501981 0.8098185731 5.4513201132
C -1.0167030820 -1.8378232073 5.6107908085
O -2.0706262421 -1.6690511384 4.6850717707
O -0.8276004420 -3.2220813395 5.8000424783
C -1.3795441016 -1.1297470117 6.9605287617
O -0.2151152705 -0.9051515700 7.7331854045
O -1.8588227826 0.1390512541 6.5614063349
C -2.4374378879 -1.8941176843 7.7583420000
H -2.4607125666 -0.7963511065 4.8791148607
H -1.7070782123 -3.6341756305 5.8425700955
H -0.0624349155 -1.6710943826 8.3098385644
H -2.0321011525 0.6612526849 7.3633100152
H -3.3386959143 -2.0480679936 7.1576733762
H -2.0637344336 -2.8683717882 8.0892536417
H -2.7090450161 -1.3151197149 8.6473011703
C -1.6254913829 -5.5581820572 0.9621742918
O -1.4944990595 -6.3122186436 2.1433942548
O -2.3815974496 -4.4115744341 1.2848273630
C -2.4345672559 -6.3504368758 -0.1102522899
O -2.7143439009 -5.5372671506 -1.2371743212
O -1.5436161530 -7.3617879006 -0.5172887031
C -3.7227721191 -6.9487954158 0.4627085265
H -1.2077494069 -7.2098442181 1.8977796321
H -2.1784207188 -4.1791772827 2.2077761070
H -3.0719788775 -4.6754181204 -0.9483321895
H -2.0117609401 -7.9613748015 -1.1220456422
H -3.5100066545 -7.6821750445 1.2430619754
H -4.3638859737 -6.1752891580 0.8920136574
H -4.2700092553 -7.4385659171 -0.3498283847
N -1.8089184844 0.0142387598 -0.0472775519
C -2.2140872818 0.2212364809 -1.2643788195
S -3.8896630101 0.2775697978 -1.7908452941
C -4.7340479775 -0.7124256072 -0.4675924344
C -4.0016824195 -0.5941712215 0.8353265624
C -2.7092862310 -0.2658140903 0.9884722369
H -5.7047396838 -0.2214132665 -0.3607622766
H -2.2581912176 -0.2411850523 1.9739075266
H -4.5858055269 -0.8228931185 1.7190815874
N 0.0748569747 0.6266873842 -1.8446365828
C -1.1581040394 0.4814836586 -2.2855374365
N -1.5094260033 0.5986554219 -3.5749393682
C -0.5435940463 0.6560170519 -4.6864105207
C 0.8008222318 1.0201233102 -4.1201062886
C 1.0476132887 0.9656780749 -2.8041883998
H -0.8860217558 1.4144431273 -5.3960392095
H -2.4416839302 0.3088342512 -3.8513627868
H 2.0206382295 1.2091108481 -2.3927443702
H 1.5808218193 1.2986728866 -4.8166705146
C -0.5890626020 -0.7176712879 -5.4405023988
O -0.1508026339 -1.7756174566 -4.6160695432
O -1.9607288168 -0.9124738469 -5.7046494062
C 0.2280436654 -0.7156157756 -6.7772274763
O 0.0866443270 0.5230652246 -7.4461150973
O 1.5751211912 -0.8064112081 -6.3579606527
C -0.1444197093 -1.8866707281 -7.6897459744
H 0.8076371411 -1.8624301046 -4.7738905998
H -2.0960783411 -1.8686498060 -5.8147194100
H -0.6875588461 0.4813021124 -8.0303337536
H 2.1381782149 -0.7755687460 -7.1501587689
H -0.0290336164 -2.8388808574 -7.1640402040
H -1.1755087480 -1.8066373885 -8.0485507097
H 0.5174813568 -1.8902874711 -8.5624373967
C -5.0498142794 -2.1442927519 -1.0251379215
O -5.7842764262 -1.9797686281 -2.2162945347
O -3.8502131186 -2.8049852970 -1.3764866510
C -5.8516863849 -3.0246650772 -0.0158014723
O -5.1258282755 -3.2264376384 1.1802693567
O -6.9673875964 -2.2215625787 0.2929457001
C -6.2797646917 -4.3598982879 -0.6327297077
H -6.7193273966 -1.8547640196 -1.9712224997
H -3.9285033429 -3.0012366686 -2.3264258736
H -4.3042643316 -3.7256921224 1.0045851080
H -7.5498604941 -2.7184454568 0.8921190073
H -6.9234525169 -4.2113706557 -1.5024665329
H -5.4143180595 -4.9482879326 -0.9469544040
H -6.8273999158 -4.9330449074 0.1227135031
