97
# extracted from Terachem optimization
Cr -0.0376117792 -0.1053105906 -0.0821242219
O 0.3045088351 2.1533268792 -0.0466129804
C 1.6703322738 2.4327697038 0.3287899696
S 2.0147758742 4.1768179801 -0.1754511421
C 0.2081475894 4.5148713567 -0.4576109377
C -0.5072769658 3.3211925135 0.1985942865
H -0.6199385416 3.4725769658 1.2769497105
H -1.4843982303 3.1339083664 -0.2519135604
H 0.0309711346 4.4869391992 -1.5365934392
H 1.7642821320 2.3323529486 1.4154644267
O 2.0730745240 0.0776461333 -0.0222301191
C 2.5726440886 1.4157613657 -0.3704028353
C 3.9895909903 1.4091981969 0.1126009449
C 4.2797899804 0.2760006181 0.7664582848
C 3.0931236264 -0.6541592961 0.7414668308
H 2.7036352744 -0.8670281474 1.7429153107
H 3.2837680121 -1.5989668707 0.2257286949
H 4.6696516382 2.2309144795 -0.0791096123
H 2.4732858540 1.5336243411 -1.4541381325
C 5.5157275100 -0.1155255536 1.4650419919
C 6.2480722737 0.7824858189 2.1465019016
N 5.7377507015 -1.5149278962 1.4755429501
H 7.1576501925 0.4957174886 2.6654979891
H 5.9344742059 1.8159690750 2.2382993795
H 5.9137616807 -1.8982633590 0.5479832727
H 6.5169016014 -1.7732358057 2.0760100992
C -0.2275598848 5.8669150578 0.0918842067
C -0.1549583591 6.1746187046 1.4192179927
N -0.7242855764 6.7319065908 -0.8348050212
H -0.4828202861 7.1371940263 1.7971808193
H 0.2774025206 5.4854101180 2.1331929086
H -0.6308139647 6.5644919734 -1.8271642871
H -0.9616353618 7.6806016931 -0.5691868291
O -0.0046967436 -2.2509440191 0.1358991866
C 0.0644042682 -2.6446632951 1.5253138443
S -0.4855982321 -4.4057349808 1.6031817960
C -0.3463696136 -4.5948522889 -0.2415827804
C 0.4384256052 -3.3517256571 -0.6948089193
H 1.5148853130 -3.4967208989 -0.5601299678
H 0.2323384236 -3.0787343486 -1.7314900197
H -1.3588124467 -4.5509073913 -0.6531670442
H 1.1021298128 -2.5641522449 1.8644536957
O -0.4310423222 -0.3140378885 1.9349225996
C -0.8298116843 -1.6857176770 2.3079204529
C -0.6528026513 -1.7181836389 3.7932237484
C -0.1554049671 -0.5627663951 4.2565179650
C -0.0008207317 0.4278024735 3.1305725339
H 1.0334654516 0.7586216565 2.9933590035
H -0.6411765004 1.3089057419 3.2298866810
H -0.9173026371 -2.5833484558 4.3900106971
H -1.8651536530 -1.8352929290 1.9762542412
C 0.2387764178 -0.1913242543 5.6262762308
C 0.8220303209 -1.0780554019 6.4512805721
N 0.0954480090 1.1925068781 5.8964538492
H 1.1196144865 -0.8039019144 7.4589479158
H 1.0573262116 -2.0851393018 6.1265517289
H -0.8757927057 1.5006866716 5.9018510030
H 0.5126005296 1.4525868491 6.7868535049
C 0.3184518802 -5.9013280179 -0.6612464486
C 1.5188181771 -6.3031020265 -0.1600433728
N -0.3489039182 -6.5932548875 -1.6314948781
H 1.9920936732 -7.2214494925 -0.4912099123
H 2.0210160128 -5.7367354788 0.6138468843
H -1.3238054048 -6.4149969515 -1.8299779649
H -0.0072246820 -7.5019167091 -1.9224312210
O -2.2391936294 -0.0296555824 -0.4343204416
C -2.5358892459 0.2337242154 -1.8229824316
S -4.2721460103 -0.3204830026 -2.1153176626
C -4.5974729624 -0.4748098315 -0.2948660612
C -3.4115202263 0.2501195310 0.3654429782
H -3.5869383563 1.3308096623 0.3873483594
H -3.2118932499 -0.1111482185 1.3746797190
H -4.5562526892 -1.5390280567 -0.0433992984
H -2.4480114387 1.3114631160 -2.0050489183
O -0.1834683923 -0.0901277762 -2.1711904225
C -1.5018395556 -0.5148162292 -2.6599744612
C -1.4826989532 -0.1491475424 -4.1110733906
C -0.3797942422 0.5468578956 -4.4234500194
C 0.5162197494 0.6684234152 -3.2164351815
H 0.6339150414 1.7014249661 -2.8746276927
H 1.5047722422 0.2214325191 -3.3451927789
H -2.2774546115 -0.4319237113 -4.7911476860
H -1.5980344559 -1.5888384946 -2.4597298369
C 0.0030880429 1.1736154793 -5.7002102060
C -0.9182480932 1.7087261943 -6.5211692800
N 1.4019445283 1.2918200020 -5.8742556963
H -0.6386469923 2.1697457184 -7.4635912948
H -1.9684052008 1.7348980155 -6.2540342857
H 1.8838358820 0.3955792419 -5.9157077339
H 1.6444800714 1.8230950663 -6.7064944995
C -5.9435056155 0.0975204439 0.1382026754
C -6.4082668646 1.2942674125 -0.3039289487
N -6.5846767312 -0.6494159549 1.0945742255
H -7.3531322709 1.6972831904 0.0451866412
H -5.8655664387 1.8657802551 -1.0456078651
H -6.4136901070 -1.6442981001 1.1621161548
H -7.5143742499 -0.3667444167 1.3837530330
