106
# extracted from Terachem optimization
Cr 0.0592521824 -0.2770126198 -0.1460992446
N 0.5615815524 1.7367420005 -0.3606276030
C 1.8060359574 2.0537602924 -0.5494262272
N 2.0320530162 3.3246644417 -0.9623057324
C 0.8005178339 4.0955154630 -0.7312420306
C -0.2506131500 2.9419921360 -0.6336504092
H -0.9872090992 3.0962679606 0.1566323464
H -0.7966000751 2.8160112740 -1.5735004722
H 0.5904131207 4.7612776728 -1.5708775422
H 2.9191208805 3.7770146671 -0.7669591775
O 2.2476204432 -0.2385994713 -0.2659582972
C 2.9047199116 1.0404298407 -0.3495005946
C 3.7105032890 1.3500738759 0.8974255079
C 3.9962284589 0.4143054733 1.8137717914
C 3.5495164582 -1.0190218793 1.6414508940
C 3.1539086727 -1.2882990873 0.2012704150
H 4.0019913282 2.3867421742 1.0404894143
H 3.5558091136 1.0422450556 -1.2387294722
H 2.5934383456 -2.2161351335 0.0990248776
H 4.0161460097 -1.3057741637 -0.4749156802
H 4.3497006720 -1.7084863736 1.9355810032
H 2.7039829431 -1.2227683276 2.3061322374
C 4.5796546610 0.7673490764 3.1559303596
O 4.1329752704 0.1947056275 4.1382689563
C 5.6572490065 1.7961823250 3.2671749402
C 6.5264256990 2.0682628599 2.2841117820
Cl 5.8076244695 2.5285314965 4.8397510630
H 7.3517255283 2.7567462801 2.4301191147
H 6.4478074735 1.5712348652 1.3237255273
C 0.9526912174 4.9121646318 0.5711031330
O 1.9281174023 4.7294948112 1.2797567078
C -0.0877813180 5.9209462734 0.9235688513
C 0.0508421680 6.7245053557 1.9835266807
Cl -1.4929034637 6.0354814409 -0.1324809479
H -0.6865137931 7.4775459558 2.2383537573
H 0.9352765471 6.6294686352 2.6058250774
N -0.1360506326 -2.3415735639 0.0900891057
C -0.2297320497 -2.9241309885 1.2546183307
N -0.2802512360 -4.2738468784 1.2134742467
C 0.0631247850 -4.7266585364 -0.1375837162
C -0.1628972256 -3.4057176877 -0.9405238646
H 0.5929313656 -3.2325050918 -1.7105169710
H -1.1449184325 -3.4157686239 -1.4267235532
H -0.6060345266 -5.5214757891 -0.4684662531
H -0.0046276882 -4.8262673676 2.0164645613
O 0.0073204300 -0.8304424522 2.3677204239
C -0.4535839559 -2.1667756075 2.5492972259
C 0.1140283630 -2.8131839514 3.7830952782
C 0.7044538914 -2.1160307308 4.7647012125
C 0.8453355898 -0.6125869827 4.6643201298
C -0.0954453167 -0.0629034652 3.5951650668
H -0.0625082056 -3.8733261215 3.9480799037
H -1.5566648870 -2.1466885235 2.6607394995
H 0.1624118869 0.9587026386 3.3104822793
H -1.1405397076 -0.0860936769 3.9320411404
H 0.6056306837 -0.1429596864 5.6253982787
H 1.8765906410 -0.3250663416 4.4331409793
C 1.0697709793 -2.9275499401 6.0049247633
O 0.6651210798 -4.0720616437 6.0953433497
C 1.8819856851 -2.3164693930 7.1075101447
C 2.9049396192 -1.4744813125 6.9229096096
Cl 1.5017968625 -2.9308170183 8.6979055456
H 3.5217515942 -1.1544007778 7.7560377061
H 3.1851044257 -1.1154786078 5.9394845464
C 1.5384975994 -5.1771604938 -0.1953208018
O 2.3179417464 -4.7967154511 0.6631286933
C 1.9853205604 -6.0499540377 -1.3197003377
C 3.1885319284 -6.6342594648 -1.3094893431
Cl 0.8578774115 -6.3013172612 -2.6470813434
H 3.5176937459 -7.2930412031 -2.1053815619
H 3.8541486305 -6.4556323074 -0.4708945100
N -1.9789468411 0.0462487518 -0.4282973797
C -2.5870331875 0.0022450299 -1.5800083817
N -3.9245323041 0.2162492584 -1.5262241933
C -4.2587179963 0.7650432647 -0.2101794943
C -3.0068429808 0.3168111511 0.6045583404
H -2.6624549439 1.0717841185 1.3147536500
H -3.2173784789 -0.6031050642 1.1620436739
H -5.1777779400 0.3273333000 0.1824117191
H -4.4165658791 0.5655053044 -2.3402307783
O -0.5097302889 -0.3114267502 -2.6917684025
C -1.9171478903 -0.3909549770 -2.8861402497
C -2.3916658778 0.4053993114 -4.0747195547
C -1.5602304481 0.9875092197 -4.9499088473
C -0.0606264154 0.8422304287 -4.7918214739
C 0.2358542607 -0.3782684732 -3.9261178817
H -3.4577625517 0.4235826102 -4.2881165649
H -2.2011011029 -1.4481782502 -3.0543799554
H 1.2823033006 -0.4227194948 -3.6187567272
H -0.0172176271 -1.3064170613 -4.4559128183
H 0.4198577239 0.7257178682 -5.7698285976
H 0.3885344214 1.7317367312 -4.3326869109
C -2.2147093963 1.6304381077 -6.1629999841
O -3.3461359513 1.3086902164 -6.4721501138
C -1.4601886567 2.6504701750 -6.9670452754
C -0.6038027264 3.5303827783 -6.4366428821
Cl -1.9092510370 2.7310318574 -8.6467997275
H -0.1592517960 4.3226616574 -7.0289321386
H -0.3621121536 3.5018324157 -5.3797039138
C -4.3695202096 2.3033265330 -0.2916426209
O -3.9167874176 2.8905446961 -1.2594131179
C -5.0224227619 3.0395189365 0.8310617814
C -5.3278806245 4.3372458137 0.7279118825
Cl -5.4057782917 2.1240750927 2.2855087414
H -5.8280676717 4.8782455451 1.5234174518
H -5.0817729558 4.8649015810 -0.1879367519
