136
# extracted from Terachem optimization
Cr 0.0289471055 -0.1094100129 0.1640226677
O 0.2278072427 1.9983583607 0.0983666069
C 1.5378977976 2.3615452635 -0.4301361563
N 1.7765650027 3.7024938440 0.0695712368
C 0.5495631660 4.1856437759 0.5881441449
C -0.3392574793 3.1911005700 0.6586715039
H -1.3481022132 3.0986881614 1.0256911556
H 2.2509698999 4.3461759017 -0.5554930631
H 1.4823270111 2.3156724937 -1.5298512580
N 2.0905435701 0.1236220323 0.2360928036
C 2.5384211185 1.3194504031 0.0569947205
S 4.1589628442 1.9211811851 0.3164885675
C 5.2040749413 0.3638680207 0.2173232757
C 4.3561251442 -0.8871566607 -0.0265461881
C 3.0256094173 -0.8969001273 0.7312186048
H 5.6827718964 0.2862967755 1.1949392794
H 4.1664390129 -1.0017004401 -1.0987221600
H 4.9454694142 -1.7486269780 0.3047732912
H 3.1940064183 -0.7195649759 1.8035439667
H 2.5418146220 -1.8710584988 0.6300718319
C 6.3263157732 0.5563083565 -0.8365071473
O 5.6683203621 0.6648106008 -2.1026788125
C 7.1621766515 1.8128952172 -0.5548042939
C 7.2362270988 -0.6996780668 -0.8585847126
N 7.7410490314 -1.0459813582 0.4720157604
H 6.3380274186 0.8879837258 -2.7692612836
H 7.5984675009 1.7929597168 0.4501042802
H 7.9875394767 1.8866965584 -1.2737044518
H 6.5591320568 2.7203165119 -0.6515781947
H 6.6471718559 -1.5413894366 -1.2338731712
H 8.0255596505 -0.5148840279 -1.6094726212
H 8.1480076002 -1.9789816210 0.4559712300
H 8.4975534782 -0.4198280640 0.7425608006
C 0.4718628956 5.6752446450 0.9154342198
O 1.7942222120 6.2158552107 0.8588640040
C -0.3040711631 6.4230823776 -0.1766614787
C -0.1092646014 5.9573330032 2.3198318124
N -1.5543700451 5.6917686947 2.4214435554
H 2.3204765289 5.8390694290 1.5848493639
H -1.3336925564 6.0623494395 -0.2424537387
H -0.3031341569 7.4956624397 0.0423010645
H 0.1765916637 6.2781307788 -1.1486831726
H 0.4045940813 5.3165597112 3.0462422919
H 0.1552741641 6.9986292842 2.5531112297
H -1.8110474694 5.6672034886 3.4076425238
H -2.0644482239 6.4852685724 2.0339412435
O -0.1455501775 -2.1397943886 0.3736745632
C -0.8308915640 -2.5096018942 1.6043648513
N -0.3562365341 -3.8540685026 1.8878345935
C 0.2563250163 -4.3377269147 0.7067304417
C 0.4195599982 -3.3408723770 -0.1655126648
H 0.9004573429 -3.2624341260 -1.1226424164
H -1.0237229552 -4.4936568216 2.3080636104
H -1.9159685685 -2.4663517265 1.4159235728
N -0.2006453711 -0.2747990753 2.2386323312
C -0.4921090069 -1.4601879412 2.6613195442
S -0.5669697265 -2.0494656181 4.3007851070
C -0.6893420256 -0.4761836124 5.3196255799
C -0.8404979340 0.7518503581 4.4223012217
C 0.1250665554 0.7551872667 3.2354846159
H 0.2565118249 -0.4074111122 5.8599422510
H -1.8722567051 0.8299687676 4.0633895020
H -0.6270473251 1.6327812149 5.0357302195
H 1.1563494120 0.5889100399 3.5793289458
H 0.1023447266 1.7192152151 2.7245656414
C -1.8138098759 -0.6341492904 6.3754720964
O -3.0364278389 -0.7599335936 5.6461033177
C -1.5875198982 -1.8693396416 7.2610246621
C -1.8890310417 0.6454537688 7.2482810158
N -0.5899255718 1.0111654987 7.8183688660
H -3.7467800283 -0.9574674727 6.2778452669
H -0.6143440546 -1.8383112074 7.7634508237
H -2.3616998448 -1.9210777377 8.0360892478
H -1.6456289678 -2.7933551065 6.6777883852
H -2.2321326549 1.4682372022 6.6146674964
H -2.6833922440 0.4793364170 7.9981357014
H -0.6373996679 1.9495661433 8.2104758114
H -0.3580513605 0.3991925685 8.5991471948
C 0.5835421493 -5.8230273493 0.6150902388
O 0.4335256371 -6.4121383187 1.9063278691
C -0.4494263023 -6.5398658292 -0.2662511908
C 2.0238884712 -6.0613291422 0.1085226189
N 2.2302447311 -5.5383007499 -1.2479643316
H 1.1325135822 -6.0727786216 2.4909212328
H -0.4565212545 -6.1303339228 -1.2798697914
H -0.2186328444 -7.6091353298 -0.3022184429
H -1.4520908282 -6.4260178540 0.1569062857
H 2.7151155401 -5.5375176764 0.7809052592
H 2.2203622517 -7.1390451267 0.2116835676
H 3.2291150345 -5.4871139530 -1.4395610644
H 1.8567839245 -6.2001827822 -1.9268444863
O -2.0516940215 -0.0353148010 -0.0829158065
C -2.4820061300 -0.1826405257 -1.4585671070
N -3.3248715558 0.9853653620 -1.6891665917
C -3.7430718736 1.4287465641 -0.4102704978
C -2.9923063297 0.8564778572 0.5311383991
H -2.9018538153 0.9824353540 1.5939661163
H -4.0941424252 0.8567204930 -2.3412281969
H -3.0415074682 -1.1313343230 -1.5340609991
N -0.0803890291 -0.3071777803 -1.9237740545
C -1.2812268965 -0.2631506091 -2.4024985458
S -1.7999570150 -0.3048942036 -4.0702733472
C -0.2816659790 -0.8644535308 -5.0069102637
C 0.7663094289 -1.3937222166 -4.0337715063
C 1.0405284122 -0.4377186109 -2.8700991876
H 0.1118140078 0.0224145384 -5.5071443372
H 0.4612701110 -2.3738642138 -3.6465475404
H 1.7023047828 -1.5218206765 -4.5874485486
H 1.2835820209 0.5603433411 -3.2626364559
H 1.9033563804 -0.7705651473 -2.2916203977
C -0.7223519395 -1.8743321758 -6.1136705063
O -1.3087370817 -3.0357590913 -5.5258339407
C -1.7959380097 -1.2627063049 -7.0232198456
C 0.5115701241 -2.2924596619 -6.9522898879
N 1.2677445718 -1.1385819094 -7.4396154942
H -0.6373367141 -3.7322216639 -5.4577031580
H -1.4819392770 -0.2944092520 -7.4280487368
H -2.0027198462 -1.9444228980 -7.8532525540
H -2.7357322445 -1.1229479998 -6.4805178739
H 1.1844212709 -2.8834646658 -6.3161568088
H 0.1441646863 -2.9723705149 -7.7384279951
H 2.1613607857 -1.4459429794 -7.8183759044
H 0.7755031686 -0.6982841849 -8.2154107717
C -4.8696694512 2.4507958661 -0.3322293042
O -5.3495698812 2.7044614396 -1.6543686826
C -6.0674639477 1.8832914987 0.4358141521
C -4.3634519199 3.7719080716 0.2985416272
N -3.8558089524 3.5811359836 1.6565507252
H -4.7078827312 3.2721682357 -2.1139592002
H -5.7888041319 1.6268997157 1.4617302027
H -6.8739335197 2.6231029331 0.4494959114
H -6.4404310001 0.9808375855 -0.0572200337
H -3.5395193793 4.1486421839 -0.3229155315
H -5.1871339187 4.4977694555 0.2216109709
H -3.1401309589 4.2759200358 1.8779569229
H -4.6048389914 3.6820316027 2.3376141263
