88
# extracted from Terachem optimization
Cr 0.0742127783 0.1681628787 0.0159154841
N 0.4600794119 2.6401232571 0.2158629870
C 1.7693822334 2.7233786857 0.3029916622
O 2.2111585722 4.0010092141 0.3501672675
C 1.0915423493 4.7913585633 0.2768431660
C 0.0129000396 3.9358847393 0.2060972878
H -1.0373591789 4.1802422867 0.1531734565
N 2.2110590171 0.4024551818 0.2291300417
C 2.7046611302 1.6163177183 0.3298278780
S 4.3982327531 2.0668402850 0.3904922425
C 5.1962817950 0.4614153972 0.8649540331
C 4.3846652620 -0.7171701210 0.4027028622
C 3.0662004252 -0.7089706256 0.1503280580
H 5.2723485054 0.4623521279 1.9601849369
H 2.5579765413 -1.6231841905 -0.1331275290
H 4.9355313638 -1.6473667071 0.2974329558
C 6.6075108513 0.4123909733 0.2779726338
C 6.9117079289 0.8698413859 -0.9467360618
N 7.4656559899 -0.3218627714 1.0952979083
H 7.9244425684 0.8087434702 -1.3327195642
H 6.1606464091 1.2887308501 -1.6047781293
H 7.4678220092 -0.0715259774 2.0791952727
H 8.4111290456 -0.4191447938 0.7403819821
C 1.2705646333 6.2378199355 0.3028025269
C 0.1939279811 7.0417281146 0.1520122500
N 2.5861197638 6.6744401974 0.4001826337
H 0.2892464900 8.1216418494 0.1809517360
H -0.7930970052 6.6410088676 -0.0419600893
H 3.2078026564 6.1282709252 0.9831108502
H 2.6954254296 7.6703752069 0.5470471459
N 0.0902309106 -2.3218143144 0.3349772893
C -0.0956621252 -2.4635414105 1.6295850829
O -0.1353661294 -3.7596538620 2.0135112071
C 0.0320278762 -4.4992304798 0.8691623001
C 0.1834490289 -3.5961318970 -0.1614317136
H 0.3506653814 -3.7922679094 -1.2098408091
N -0.2158644833 -0.1626021748 2.1428152691
C -0.2641129381 -1.3950341766 2.5946654265
S -0.6298865267 -1.9027205514 4.2350450722
C -0.2954229020 -0.3403992012 5.1781991133
C -0.5690934821 0.8740616820 4.3332594752
C -0.5001105731 0.9175308148 2.9927434404
H 0.7631515576 -0.3695820279 5.4681389824
H -0.6631928831 1.8522689528 2.4683055163
H -0.8123111124 1.7803575989 4.8802281291
C -1.1491956987 -0.3321148658 6.4461551068
C -2.4159635162 -0.7744137886 6.4838149698
N -0.5078384089 0.3497629718 7.4789335595
H -2.9942252169 -0.7425298463 7.4018358247
H -2.9175201809 -1.1486564317 5.6002369904
H 0.4554353723 0.0849312782 7.6592045392
H -1.0383632122 0.4132277704 8.3413686358
C 0.0239722222 -5.9524048655 0.9825639935
C 0.0696939386 -6.7043948923 -0.1401981574
N -0.1204788893 -6.4492649535 2.2722748315
H 0.0813998379 -7.7877483078 -0.0918788203
H 0.0510514968 -6.2567141296 -1.1259053048
H 0.3506405519 -5.9454443242 3.0132368997
H -0.0105750764 -7.4523058322 2.3579586095
N -2.0416249685 0.0113774650 -0.3033951144
C -2.2936948674 0.0995964548 -1.5949566119
O -3.6006713339 -0.0234827142 -1.8715369378
C -4.2347182447 -0.2107088208 -0.6612526778
C -3.2571186514 -0.1745230677 0.3068529586
H -3.3539793498 -0.2612923936 1.3777022917
N -0.0470456551 0.3790484566 -2.1254610076
C -1.2720733333 0.3114293484 -2.5987274443
S -1.7767694674 0.3511176535 -4.2705638202
C -0.2712506901 1.0809308781 -5.0822999655
C 0.9823961275 0.7780793197 -4.3061269108
C 1.0446918111 0.4884176789 -2.9959675257
H -0.4367448964 2.1645205045 -5.1312534268
H 1.9984093311 0.3180215277 -2.5107765792
H 1.9036751145 0.8262646120 -4.8793032109
C -0.1686703428 0.5305256324 -6.5053422139
C -0.3883150016 -0.7609949887 -6.8020453573
N 0.3477517822 1.4795962002 -7.3812099916
H -0.2999873965 -1.1269423844 -7.8200548821
H -0.6279014009 -1.4882752600 -6.0366156506
H -0.0673860682 2.4048376723 -7.3442555792
H 0.4696721859 1.1639630762 -8.3373684813
C -5.6823975305 -0.3837369716 -0.6693556602
C -6.3204516357 -0.6752586896 0.4861526765
N -6.2821540031 -0.3173176880 -1.9206989641
H -7.3978052712 -0.7948428106 0.5185196190
H -5.7797515529 -0.8435785730 1.4091387154
H -5.9165724327 0.3668913961 -2.5712909481
H -7.2946766855 -0.3333097247 -1.9088271993
