139
# extracted from Terachem optimization
Cr -0.1912450715 -0.0269551331 0.0207974766
O -0.0104086049 2.0534512705 -0.0539503006
C 1.1942392973 2.5158344297 -0.7056235971
O 1.5766252851 3.6714879153 -0.0370534011
C 0.3790566627 4.3502808883 0.3854093327
C -0.6421284547 3.2119730289 0.5840194974
H -0.7714947803 2.9801065650 1.6398834949
H -1.6011309307 3.3874348024 0.0929507906
H 0.0591002210 5.0334099836 -0.4110900922
H 0.9341951633 2.7287235215 -1.7561419017
N 1.8360114363 0.2070604237 -0.3163278731
C 2.2663772033 1.4563610716 -0.5919014707
C 3.6077789524 1.7732908797 -0.7735969427
C 4.5793862580 0.7733425122 -0.6624614940
C 4.1254450223 -0.5197927317 -0.3596761211
C 2.7690740098 -0.7651574358 -0.1963026490
H 3.9120541214 2.7941342619 -0.9722900404
H 2.4088337004 -1.7660191761 0.0325515505
H 4.8228030946 -1.3439430017 -0.2605690651
C 6.0699966635 1.1088173220 -0.7638020471
N 6.2242749845 2.5008109540 -1.2302770327
C 6.6497134480 1.0380681351 0.6713320849
C 6.8249301088 0.1584279372 -1.7040468308
C 6.2942562777 -0.6039423042 -2.6687019369
O 8.1688382252 0.2949784567 -1.4974974644
H 7.1843584053 2.7962121335 -1.0618998476
H 6.0946186407 2.5385664649 -2.2418296768
H 6.5350800331 0.0379281344 1.0988792286
H 7.7150187357 1.2783780454 0.6567334523
H 6.1293126784 1.7596369715 1.3074652108
H 6.9204496528 -1.1779731725 -3.3469161125
H 5.2250934504 -0.6693697041 -2.8189656843
H 8.6558756840 -0.2241322064 -2.1587619296
C 0.7316191693 5.1382093827 1.6667194050
N 1.2299584769 4.1562380524 2.6561847983
C 1.7811448313 6.2249813204 1.3314056892
C -0.5053602456 5.8197684111 2.2470106049
C -1.6590569860 6.0642354583 1.6167111362
O -0.2391236298 6.2190891304 3.5287689058
H 2.2099508230 3.9664412538 2.4541354414
H 1.1979615606 4.5877261793 3.5782086586
H 1.4034643694 6.9223295651 0.5760196638
H 2.0241040352 6.7954105891 2.2317556255
H 2.6960232236 5.7622041117 0.9478612380
H -2.4623157617 6.6139373627 2.1003191459
H -1.8338785249 5.7617791158 0.5928550321
H -0.9865140145 6.7334997238 3.8757798681
O -0.4194323428 -2.0561064588 0.2397380963
C -0.8186179718 -2.4588091171 1.5705328418
O -0.1510526406 -3.6552520980 1.8050699193
C -0.0838838392 -4.3793276398 0.5610829166
C -0.1756131838 -3.2768718083 -0.5194475407
H 0.7592990133 -3.1512161662 -1.0603527522
H -1.0079405732 -3.4245602677 -1.2112235398
H -0.9396235509 -5.0623012356 0.5043554266
H -1.9115891520 -2.6071808418 1.5586372633
N -0.0739119140 -0.1933666541 2.1021757979
C -0.3978665623 -1.4139222770 2.5816868834
C -0.3468414627 -1.7397581850 3.9323999588
C 0.0638930541 -0.7786050824 4.8616247314
C 0.4295142787 0.4778118475 4.3543990019
C 0.3551668455 0.7298104583 2.9927178558
H -0.5938566469 -2.7385681487 4.2724967243
H 0.6408440380 1.7001026260 2.5979947096
H 0.7636654646 1.2687906876 5.0158154713
C 0.2163647779 -1.1330267947 6.3432215484
N -0.3944091875 -2.4529212862 6.5942396127
C 1.7352490134 -1.2668740212 6.6199914015
C -0.4145967186 -0.0842634620 7.2701554957
C -1.3490728326 0.8177866289 6.9443832437
O 0.0326152842 -0.2869846869 8.5454216150
H -0.0744963873 -2.7918489577 7.4998388038
H -1.4065953745 -2.3512029471 6.6765866738
H 2.2619476668 -0.3328718566 6.4049275550
H 1.9041225179 -1.5142664395 7.6703575090
H 2.1491019281 -2.0630923447 5.9946208235
H -1.8017293651 1.4594742199 7.6960375487
H -1.6987780140 0.9368694864 5.9277161725
H -0.4396702263 0.3031341416 9.1557830791
C 1.2410939844 -5.1712811547 0.5602850324
N 2.3327564759 -4.1806357586 0.6821457484
C 1.2379720003 -6.1985937142 1.7164803718
C 1.4197045928 -5.9220568027 -0.7583483026
C 0.4677712778 -6.2148203138 -1.6516866105
O 2.7224792008 -6.3210500317 -0.8751506739
H 2.4192179355 -3.9213058252 1.6635873439
H 3.2062088096 -4.6346490231 0.4199993864
H 0.4083340493 -6.9073259240 1.6201264819
H 2.1721029384 -6.7664947772 1.7068591691
H 1.1456546811 -5.6883443348 2.6804644910
H 0.6836360405 -6.8088416623 -2.5358064480
H -0.5652735425 -5.9243317122 -1.5116569865
H 2.8273310450 -6.8830947766 -1.6606492905
O -2.2867109557 0.1068303116 -0.1417770563
C -2.8227058010 -0.2795949657 -1.4258594696
O -3.7527420517 0.7007938293 -1.7499790287
C -4.4451251227 1.0125066275 -0.5251170831
C -3.3575505110 0.8137780267 0.5566890857
H -2.9593945458 1.7602415238 0.9125650485
H -3.6902328308 0.1932476804 1.3903619569
H -5.2623522766 0.2922434383 -0.3946981132
H -3.3180017726 -1.2564007303 -1.2870657311
N -0.4578728425 -0.3081569912 -2.0927328053
C -1.7477068219 -0.3676409327 -2.4861738760
C -2.1365594635 -0.5290085496 -3.8140520170
C -1.1696611180 -0.6443745474 -4.8147725555
C 0.1713814621 -0.5895534028 -4.4031048706
C 0.4782671925 -0.4234938914 -3.0614491156
H -3.1855522418 -0.5409261347 -4.0860164164
H 1.5103787573 -0.3810019236 -2.7347743742
H 0.9774104325 -0.6852385429 -5.1220094342
C -1.5657912945 -0.7234859760 -6.2921291844
N -3.0268821297 -0.8998181342 -6.3953960635
C -1.2175425905 0.6472821657 -6.9262077342
C -0.8476163059 -1.8607736026 -7.0318175988
C -0.2773267871 -2.9407451403 -6.4822681696
O -0.9791742838 -1.6740611480 -8.3788091466
H -3.3194066679 -0.6672681820 -7.3427031212
H -3.2634004444 -1.8835359849 -6.2631758553
H -0.1492984272 0.8649159623 -6.8399734349
H -1.4754211658 0.6413410363 -7.9874072944
H -1.7846136872 1.4359605870 -6.4235243147
H 0.1302985528 -3.7395560194 -7.0964718553
H -0.2111628653 -3.0685294148 -5.4100889014
H -0.6196237911 -2.4418793870 -8.8533680784
C -5.0065294457 2.4438410944 -0.6495739987
N -3.8606598706 3.3456821192 -0.8996234975
C -6.0535560806 2.4936918034 -1.7884091501
C -5.6822401548 2.8725394268 0.6516413628
C -6.1279814466 2.0712954627 1.6253884983
O -5.8366317541 4.2315076745 0.6541110000
H -3.5846696861 3.2460641120 -1.8752561051
H -4.1819879194 4.3045333985 -0.7784829520
H -6.8818346569 1.8017648737 -1.6022284581
H -6.4651151581 3.5037662274 -1.8646511689
H -5.5894647256 2.2304489439 -2.7442901868
H -6.6537936958 2.4687793563 2.4893800700
H -6.0338143579 0.9944149577 1.5771078688
H -6.3614894172 4.5027452400 1.4253117189
