112
# extracted from Terachem optimization
Cr -0.0746519085 0.1791164428 -0.0141614991
N 0.3917412952 2.1360033037 -0.2974186719
C 1.6479734576 2.5079320510 -0.1451392633
C 1.8538374095 3.9202372004 -0.3831190550
C 0.6459259877 4.4423999170 -0.7141060793
C -0.3634803320 3.3268138052 -0.6826978544
H -1.1822840405 3.5324328964 0.0161772833
H -0.8409486757 3.1579337554 -1.6570662287
H 2.7988133083 4.4438577097 -0.3337728526
N 2.0508297557 0.2386871667 0.1831829520
C 2.5798226849 1.4427807496 0.1919738482
S 4.2507241921 1.8192308232 0.5874584037
C 4.5177006695 0.4007965957 1.7509087053
C 4.0407425614 -0.8449047406 1.0543356447
C 2.8734531879 -0.8812476516 0.3922200547
H 3.9235863112 0.6123952324 2.6444383849
H 2.4934077579 -1.7984854286 -0.0426656099
H 4.6498979397 -1.7402214181 1.1156835667
C 5.9865159929 0.3344102703 2.1955136819
O 6.8636103046 -0.0559909878 1.1558551947
C 6.1235333128 -0.7035663958 3.3433290994
O 5.1293357377 -1.1823719568 3.8594039577
C 7.5262805516 -1.0671629188 3.7514525003
H 6.2741767673 1.3069596690 2.6246437418
H 7.2245508004 0.7255469464 0.7101004767
H 8.0106979955 -1.6223107872 2.9399845082
H 8.1325139018 -0.1696960127 3.9200219951
H 7.5001433453 -1.6796243642 4.6541424500
C 0.3800320593 5.8760247102 -1.0877697521
O 1.5078862773 6.7025102839 -0.8926989368
C -0.9395838993 6.4512869161 -0.4846263839
O -1.8971127397 5.7207195523 -0.3189670428
C -0.9646754319 7.9320853707 -0.2059940224
H 0.1963097691 5.9098769715 -2.1743306367
H 1.6778291390 6.7876777437 0.0600886815
H -0.3383418351 8.1672865336 0.6645549079
H -0.5479178496 8.4962447361 -1.0466215343
H -1.9893760894 8.2439391240 0.0017171543
N -0.3367752724 -1.8119944607 0.3268678427
C -0.1894417602 -2.2211010300 1.5730048047
C -0.3994291030 -3.6452880468 1.7279689811
C -0.6982421398 -4.1337133037 0.4972921375
C -0.6818069237 -2.9845929885 -0.4726983893
H 0.0300738929 -3.1500839248 -1.2903795722
H -1.6537207484 -2.8253911271 -0.9597066328
H -0.3475933263 -4.1996637821 2.6551338850
N 0.1276550891 0.0372997473 2.0794168803
C 0.1269035000 -1.1899129892 2.5521860336
S 0.4993761767 -1.6361865945 4.2134288090
C 1.6700178143 -0.2380753632 4.5486054657
C 0.9860400193 1.0312886525 4.1178068563
C 0.3324088011 1.1214282772 2.9487540791
H 2.5671751093 -0.4315202874 3.9539515491
H -0.0926782035 2.0564705652 2.6026694541
H 1.0498339847 1.9011458317 4.7625765557
C 2.1020774417 -0.2321637628 6.0227247253
O 1.0583888121 0.1369321778 6.9040224319
C 3.2589820499 0.7883150121 6.2064193218
O 3.7963885924 1.2872570449 5.2335522491
C 3.6493064196 1.1097716374 7.6243347342
H 2.5192474478 -1.2189426331 6.2777862640
H 0.5977818504 -0.6520452712 7.2281529662
H 2.8356606773 1.6580034046 8.1128992066
H 3.8030143593 0.1948642718 8.2082058298
H 4.5570116730 1.7153815107 7.6274197965
C -1.0181465922 -5.5644820048 0.1612207173
O -0.8741017097 -6.4297307751 1.2669097372
C -0.3117769264 -6.0737397040 -1.1370254771
O -0.0990392379 -5.3035417133 -2.0523755668
C 0.0062205482 -7.5456709913 -1.1976100999
H -2.0885275521 -5.6185617645 -0.0967185768
H 0.0688844532 -6.5128248542 1.4851115515
H 0.8363987628 -7.7866442850 -0.5208683240
H -0.8472353948 -8.1463271506 -0.8662823145
H 0.2938821979 -7.8103730417 -2.2162905384
N -2.0586863668 0.4071270520 -0.2161575776
C -2.5277700871 0.3060710826 -1.4473289686
C -3.9687106937 0.4579022038 -1.5102031788
C -4.3991074148 0.6689718975 -0.2405508690
C -3.1986397600 0.6406971302 0.6658577174
H -3.0970362936 1.5785001213 1.2262875151
H -3.2463298811 -0.1544552108 1.4218536434
H -4.5765663009 0.4004965802 -2.4032264735
N -0.2994291360 -0.0284304088 -2.0767147397
C -1.5469389809 0.0401438828 -2.4895260949
S -2.0949979627 -0.1940840626 -4.1425920068
C -0.5429471449 0.2517812747 -5.0606630740
C 0.6535104808 -0.2636971426 -4.3102750305
C 0.7373068584 -0.3377142788 -2.9730243401
H -0.5007614927 1.3415628620 -5.1518952914
H 1.6614894303 -0.6316659088 -2.4889540359
H 1.5198648285 -0.5483249337 -4.8989492557
C -0.6356308218 -0.3272015765 -6.4900002054
O -0.4114920481 -1.7203375371 -6.5338938256
C 0.4170494065 0.3698262797 -7.3960933656
O 0.8795262117 1.4401320455 -7.0530341996
C 0.7734081364 -0.3272037129 -8.6820960128
H -1.6167524320 -0.0652872511 -6.9220046633
H -1.2231229866 -2.1923080598 -6.2900183814
H 1.2882606467 -1.2701991544 -8.4666267472
H -0.1297350848 -0.5898350105 -9.2453586109
H 1.4149680279 0.3212694932 -9.2807815997
C -5.8200386877 0.8813921729 0.2011915696
O -6.7291620227 0.9267196631 -0.8775172024
C -5.9863587932 2.0598950583 1.2167206347
O -5.0863466612 2.3259480793 1.9880521395
C -7.3170099541 2.7669462441 1.2146661081
H -6.1280547606 -0.0004638779 0.7867140911
H -6.5755488279 1.7396625266 -1.3870295868
H -7.4073369120 3.4036862960 0.3247467891
H -8.1444769180 2.0517359281 1.1699249390
H -7.3921239531 3.3945139367 2.1040894611
