160
# extracted from Terachem optimization
Cr 0.2021484550 -0.1417047366 0.1713656154
N 0.2900321018 1.9071132886 0.4328126238
C 1.5303837677 2.2921024731 0.6643432441
O 1.6232603636 3.5901760183 0.9071947497
C 0.3431310094 4.1104008637 0.8266111081
C -0.4794193527 3.0575028057 0.5265275520
H -1.5464219905 3.0395794064 0.3781579957
N 2.2872268805 0.1145763477 0.3911969236
C 2.6431475348 1.3641238142 0.6445635799
S 4.2388441236 1.9958210536 0.8177921720
C 5.1795261408 0.4179739140 1.2362718532
C 4.5958584680 -0.6813792264 0.3887988648
C 3.2922321117 -0.8272772619 0.0983440407
H 4.9756668989 0.2548510838 2.2991919908
H 2.9482908481 -1.6922091670 -0.4542674170
H 5.2928653481 -1.4043846452 -0.0118833180
C 6.7142373757 0.6252541661 1.0190196667
O 6.9703513878 0.2609481079 -0.3228922648
C 7.1212503138 2.0977478701 1.2270414007
C 7.5847884216 -0.3295766650 1.9717903938
C 7.6112394245 0.1592100126 3.4310172279
C 7.1054999482 -1.7908092192 1.9319187261
N 8.9225132726 -0.3032212215 1.3443617821
H 7.9354311228 0.0471329873 -0.3107415083
H 6.7868919556 2.5165622398 2.1819462055
H 6.7277553667 2.7076490801 0.4071417453
H 8.2085116730 2.1986708871 1.1759277013
H 6.6079037958 0.2214081518 3.8718189878
H 8.1883983264 -0.5418571640 4.0426519033
H 8.0796633432 1.1430008935 3.5264885766
H 7.7623145027 -2.4059618457 2.5567789198
H 6.0926868051 -1.9069532333 2.3318195305
H 7.1389517262 -2.1967440855 0.9160747369
H 9.5160160699 0.4263427215 1.7331930622
H 9.4136592000 -1.1845641087 1.4728494890
C 0.2651697692 5.6063043267 1.0343646052
O 1.1043975173 5.8416268432 2.1511428617
C 0.8688273953 6.2851144383 -0.2195795344
C -1.1874245764 6.1608914236 1.3911771353
C -2.1484490055 6.1734002431 0.1908702889
C -1.7905411070 5.3765097029 2.5699464351
N -0.9026490728 7.5216234374 1.8883035955
H 0.8099125604 6.7349630516 2.4533673959
H 0.3234331458 6.0526387574 -1.1396151508
H 0.8753883091 7.3694262947 -0.0774943280
H 1.9088224939 5.9673760315 -0.3322761002
H -2.2873500274 5.1799502520 -0.2552016475
H -3.1334648138 6.5294438677 0.5102636471
H -1.7969967583 6.8418535003 -0.6011593113
H -1.0816559686 5.3256770051 3.4006153301
H -2.7032519129 5.8719558131 2.9183224782
H -2.0708657165 4.3568859859 2.2891615889
H -0.9172517398 8.2159322942 1.1444321543
H -1.5814088038 7.8147562988 2.5864211539
N 0.4456843281 -2.1857049105 0.2707307137
C 0.3975779091 -2.5971264937 1.5244303416
O 0.6355697869 -3.8946619771 1.6415795874
C 0.8599565250 -4.3822818202 0.3666080051
C 0.7324428985 -3.3142568923 -0.4817175806
H 0.8297500809 -3.2720405156 -1.5541357578
N -0.0545011294 -0.4378137962 2.2411756073
C 0.1106888818 -1.6944123682 2.6215315694
S -0.1134118331 -2.3540348675 4.1996355886
C 0.0594951751 -0.7865375014 5.2313659743
C -0.6529521508 0.3095816385 4.4826123768
C -0.6097061064 0.4802566722 3.1502527223
H 1.1380355545 -0.6048901406 5.2747637168
H -1.0711019159 1.3438324632 2.6871426945
H -1.2372329759 1.0025571026 5.0721225135
C -0.4924615611 -1.0234962143 6.6736482393
O -1.8724807509 -0.7169126783 6.6088591036
C -0.3226565436 -2.4919028129 7.1118369959
C 0.1871780463 -0.0433941138 7.7473902060
C 1.6249409916 -0.4602101145 8.1025499669
C 0.1785637018 1.4246774608 7.2883833645
N -0.7275890489 -0.1305953653 8.9055080456
H -2.1022860375 -0.5350401889 7.5523210464
H -1.0093566020 -3.1265209786 6.5422083419
H -0.6110349107 -2.6060839542 8.1598985865
H 0.6981311006 -2.8720214882 6.9981286673
H 2.2890899108 -0.4683476814 7.2284254790
H 2.0465610730 0.2511443950 8.8201893037
H 1.6658482289 -1.4528365751 8.5607699883
H 0.5920387024 2.0564313712 8.0820873369
H 0.7988886768 1.5875301884 6.4007623627
H -0.8395698679 1.7684579342 7.0837845448
H -0.4458199722 -0.8550815344 9.5623581739
H -0.7586250485 0.7433886917 9.4250466569
C 1.1058863313 -5.8734677685 0.2948687830
O 1.8804396456 -6.1506884980 1.4454143476
C -0.2659557475 -6.5815809138 0.4051235232
C 1.9383752106 -6.3503779383 -0.9842487829
C 1.1158708336 -6.3613185190 -2.2838020161
C 3.2060990720 -5.4946646912 -1.1506559406
N 2.3792781756 -7.7054812516 -0.5975894044
H 2.3052980768 -7.0123854797 1.2104815356
H -0.9527079163 -6.3096719503 -0.4022996202
H -0.1179533044 -7.6652474667 0.3917083561
H -0.7259964093 -6.3290242604 1.3646614550
H 0.6936979991 -5.3786947842 -2.5314422704
H 1.7559641707 -6.6604471265 -3.1202044969
H 0.2857802407 -7.0723807628 -2.2326450552
H 3.7557646505 -5.4248063894 -0.2074582826
H 3.8626958139 -5.9420226091 -1.9047712886
H 2.9719300860 -4.4832461464 -1.4961661118
H 1.7091166197 -8.4214528990 -0.8700656227
H 3.2699482154 -7.9484009023 -1.0239140982
N -1.8334444928 -0.3568441799 -0.0902645115
C -2.1319614669 -0.3231974328 -1.3762163163
O -3.4226245446 -0.5726799294 -1.6027267550
C -3.9992527863 -0.7868082345 -0.3660755251
C -3.0093252381 -0.6527969010 0.5713234993
H -3.0816495726 -0.7608586574 1.6409214015
N 0.0946774909 0.0474781621 -1.8960534248
C -1.1237605684 -0.0789507267 -2.3883713084
S -1.6059174086 -0.0418851224 -4.0493893039
C -0.1118555546 0.7043392919 -4.9015817836
C 1.1247238778 0.5117926195 -4.0648726170
C 1.1944657081 0.2481702381 -2.7510282130
H -0.0030601032 0.0857134068 -5.7938946767
H 2.1500273382 0.1738500908 -2.2487466481
H 2.0530891599 0.6487584934 -4.6079464611
C -0.2835120570 2.1987684309 -5.3555270893
O 1.0395310188 2.5256063600 -5.7448992657
C -0.6932845688 3.0999223271 -4.1788054145
C -1.2133948942 2.4087993649 -6.6440248265
C -2.7180076526 2.4386724049 -6.3338036607
C -0.9209624386 1.3444096149 -7.7165337237
N -0.7445989841 3.7072134305 -7.1836560348
H 0.8944035700 3.2524521037 -6.4057215617
H -1.6783665352 2.8598052849 -3.7653687102
H -0.7069222621 4.1443821453 -4.5035497856
H 0.0611272818 3.0205200914 -3.3884000307
H -3.0762274301 1.5006649798 -5.8928258849
H -3.2797103718 2.5928943456 -7.2611643482
H -2.9809331799 3.2528472897 -5.6500047009
H -1.4053559199 1.6246837492 -8.6580132560
H -1.3242899276 0.3626256496 -7.4467937900
H 0.1536701704 1.2508460739 -7.9009180561
H -1.2881725811 4.4903901014 -6.8271693676
H -0.8079006951 3.7360426189 -8.1983621505
C -5.4399993893 -1.1825106706 -0.2363524833
O -5.5473370806 -1.5245332885 1.1313219648
C -5.7143665488 -2.4218143476 -1.1159667328
C -6.4672046244 0.0232501669 -0.5237480251
C -6.6775386254 0.2788872656 -2.0225710732
C -5.9742042281 1.3027906039 0.1717653901
N -7.6953865746 -0.4144933942 0.1595671677
H -6.5104161870 -1.3775412810 1.3129763977
H -5.4995306089 -2.2512303686 -2.1747301449
H -6.7628777589 -2.7157112369 -1.0149535052
H -5.1058958906 -3.2559152131 -0.7553940838
H -5.7363162851 0.4998748880 -2.5401251188
H -7.3389838829 1.1410887474 -2.1586741453
H -7.1425606008 -0.5761291902 -2.5229311935
H -5.7551095026 1.1175163267 1.2276802352
H -6.7396766948 2.0834240448 0.1069682610
H -5.0736368724 1.6946522111 -0.3143568265
H -8.3202282202 -0.9298824726 -0.4562971832
H -8.2203925607 0.3676614807 0.5424240348
