136
# extracted from Terachem optimization
Cr -0.6448222383 -0.5211357782 -0.0791199232
O -0.5333444428 1.9580995769 -0.0683068306
C 0.7048165403 2.4691384403 -0.5427521586
S 1.2854648912 3.6974898011 0.7104685720
C -0.4773466648 4.2523562246 0.7830774578
C -1.2841051423 2.9488148670 0.6878971545
H -1.4577616899 2.5239840203 1.6784778924
H -2.2478247309 3.0869669328 0.2007932989
H -0.6706794506 4.8496705222 -0.1121905749
H 0.5592403028 2.9775447827 -1.5082265847
N 1.3551512568 0.1216779120 -0.5155286475
C 1.6799190737 1.3507144267 -0.7172254273
C 3.1096174660 1.5664124443 -1.1350450128
C 3.5616106463 0.1323690823 -1.4969045316
C 2.5416123955 -0.7491643363 -0.7328601564
H 2.8966448156 -1.0757312927 0.2487105926
H 2.2518102210 -1.6427549121 -1.2814683219
H 3.3691532540 -0.0118082264 -2.5692397605
H 3.2021188857 2.2828691321 -1.9559754516
H 3.6796502471 1.9938938662 -0.2997686348
C 5.0846706818 -0.1290774437 -1.2700884238
N 5.7928020262 0.9981102182 -1.8758684233
C 5.4817392231 -0.1851618680 0.2183184643
C 5.4175680739 -1.5266180689 -1.8698711311
O 4.7085161971 -2.5090612471 -1.6265120457
N 6.5198407612 -1.6131728566 -2.6420507502
H 6.7681759732 1.0648967100 -1.5991030246
H 5.7184163270 1.0303884892 -2.8895469191
H 5.0123674329 -1.0306688592 0.7254477526
H 6.5665615470 -0.3103810821 0.3111328417
H 5.2129836780 0.7442039029 0.7296693881
H 7.1134232254 -0.8169251171 -2.8172327610
H 6.8062343543 -2.5193299820 -2.9893404626
C -0.7378750129 5.1475341688 2.0497606345
N 0.3490537127 4.9554407942 3.0031219242
C -0.7396707341 6.6271044934 1.6223227068
C -2.1772004037 4.8190222139 2.5575433183
O -3.1435614190 4.9620105384 1.8046854631
N -2.3046007114 4.3891042907 3.8342416734
H 0.3571743950 5.6862310802 3.7100593621
H 0.3464776462 4.0494324078 3.4661778069
H -1.5444626347 6.8159512937 0.9089332324
H -0.8979943048 7.2765402136 2.4907291288
H 0.2232997746 6.8850137477 1.1713668967
H -1.5196435194 4.0870567761 4.3999492335
H -3.2368548989 4.1394198274 4.1391336862
O -0.5978823853 -2.9499303521 0.6089516230
C 0.0906578511 -3.0613493499 1.8357681911
S 1.7167452005 -3.8460640337 1.4058245078
C 0.8347898663 -4.8824079369 0.1253741112
C -0.5886069206 -4.2673315052 0.0074807121
H -0.8869926072 -4.1448440092 -1.0295916132
H -1.3098895635 -4.8880002228 0.5520169791
H 0.7471861847 -5.8737725858 0.5750210910
H -0.4546812373 -3.7453622842 2.5049294163
N -0.2289340397 -0.6475480307 2.0026236463
C 0.1953686269 -1.7424370419 2.5303712791
C 0.7677149604 -1.5937693181 3.9151454878
C 0.2633100510 -0.1896372811 4.3249210027
C -0.0803744315 0.4711482238 2.9650442630
H 0.6896621576 1.1477842781 2.5855757888
H -1.0115405028 1.0340833834 3.0146188745
H -0.6825199192 -0.3314829389 4.8649514420
H 0.4565504575 -2.3923063591 4.5934609619
H 1.8629505201 -1.6505890785 3.8630970415
C 1.2172437867 0.5882018891 5.2853119072
N 1.5906431264 -0.3449697266 6.3452747196
C 2.5166983053 1.0622465674 4.6049747444
C 0.4589729778 1.8663677205 5.7560198717
O -0.1226738352 2.5959490061 4.9420390962
N 0.4782086451 2.1349435989 7.0753434256
H 2.3789048094 -0.0407848355 6.9091908392
H 0.8185755175 -0.6255302097 6.9442798168
H 2.3205090741 1.8025360434 3.8261372461
H 3.1760701758 1.5300159505 5.3447224786
H 3.0548649584 0.2141491729 4.1710465946
H 0.9544772281 1.5371799702 7.7336981668
H 0.0318892610 2.9758882075 7.4177148632
C 1.7072360025 -5.1025262847 -1.1734856818
N 3.1046949349 -5.0596645339 -0.7535795612
C 1.4068969365 -6.5321303647 -1.6832408659
C 1.3212396917 -4.1816759134 -2.3723150252
O 0.1510138706 -4.1292789074 -2.7746911841
N 2.3198242658 -3.5338142484 -3.0077050169
H 3.7009336658 -5.6444907399 -1.3324356801
H 3.5063991204 -4.1263319672 -0.7167317376
H 0.3431257136 -6.6524939307 -1.9015978301
H 1.9623448581 -6.7329777992 -2.6063008237
H 1.7124733582 -7.2636692673 -0.9286152155
H 3.2706157875 -3.5065239553 -2.6579377961
H 2.0933384648 -3.0149941738 -3.8567516240
O -2.8197174577 -0.6004187491 -0.0733200624
C -3.4789219614 -0.9922699905 -1.2779381309
S -4.8161033957 0.2359959722 -1.5444806544
C -5.0956097612 0.2961443164 0.2901237184
C -3.7670916912 -0.1509298099 0.9451532725
H -3.2717378596 0.6767527646 1.4492383423
H -3.9355039257 -0.9731744613 1.6405534308
H -5.8752362418 -0.4263439908 0.5370230420
H -3.9197643288 -1.9909503651 -1.1490753138
N -1.2260872861 -0.7919897197 -2.0716058920
C -2.4567597389 -1.0160978722 -2.3704347942
C -2.7026047006 -1.3191105276 -3.8241781976
C -1.2675936578 -1.6646950053 -4.2970461549
C -0.3848750294 -0.9012069258 -3.2855739412
H -0.1234095742 0.1138187108 -3.6045970230
H 0.5340021351 -1.4282627484 -3.0477338169
H -1.1038372007 -2.7270366652 -4.0825628536
H -3.4256560836 -2.1239627771 -3.9789172646
H -3.1154476237 -0.4294580449 -4.3196935853
C -0.9870723691 -1.4549274894 -5.8115669257
N -2.0870482052 -2.0995226054 -6.5298004833
C -0.9526759038 0.0244876729 -6.2415366880
C 0.4321197984 -2.0431339920 -6.0896536024
O 1.3816659106 -1.8116152713 -5.3332982594
N 0.5682811953 -2.7869603853 -7.2077444354
H -2.1374179189 -1.8449464369 -7.5123402555
H -2.0903733708 -3.1123213591 -6.4363467972
H -0.1384312264 0.5653637443 -5.7542114001
H -0.7908672729 0.0972606290 -7.3230681297
H -1.9030764592 0.5182233958 -6.0163716251
H -0.2085795213 -2.9769180768 -7.8218375889
H 1.4814070048 -3.1484284540 -7.4495535153
C -5.5778142182 1.7124282426 0.7435438424
N -4.5727089911 2.7196538274 0.4046131865
C -6.9620304753 2.0077004241 0.1176979959
C -5.7363907594 1.6323523921 2.2871604239
O -5.5700623271 0.5850773232 2.9018782457
N -6.0523192053 2.7989475252 2.9187603317
H -4.7764369537 3.1589329317 -0.4895830397
H -4.4508811155 3.4578293482 1.0968272374
H -7.7033473869 1.2466810828 0.3835652171
H -7.3377946426 2.9809434821 0.4468283777
H -6.8869729128 2.0402109940 -0.9757766510
H -6.3413305481 3.6258331724 2.4150630137
H -6.3262260024 2.7315703092 3.8911821951
