145
# extracted from Terachem optimization
Cr -0.2050867884 -0.1968502765 -0.2353929251
N 0.1183236756 1.8239651703 -0.4638661102
C 1.3480641859 2.2028202513 -0.2414502148
N 1.5721903142 3.5214149060 -0.3060339085
C 0.2655323818 4.2286710434 -0.4129143842
C -0.6601915608 3.0345998576 -0.8003339557
H -1.6141151858 3.0405778283 -0.2773173111
H -0.8676067297 3.0264875522 -1.8770666232
H 0.3416092605 4.9598126256 -1.2209241842
H 2.4009460182 3.9743873712 0.0581692318
N 1.8313448488 -0.1017761960 -0.0236963142
C 2.3243826424 1.1157216767 -0.0245349816
N 3.6393899531 1.1982435737 0.1714537165
C 4.2142727539 -0.1729420585 0.0776429812
C 2.9446010359 -1.0213266606 0.3264786795
H 2.8357890327 -1.3201800423 1.3770436605
H 2.9117116417 -1.9247797130 -0.2794160591
H 4.5704941311 -0.3211644911 -0.9470492145
H 4.2344587015 2.0089274636 0.0578780184
C 5.4219603723 -0.3118080561 1.0086764126
O 6.2099869794 0.8219338244 0.6444956167
C 6.2304791511 -1.6483870773 0.8468080287
N 6.3150421485 -1.9383261218 -0.5833292040
N 7.5668431847 -1.5423937591 1.4358938729
C 5.5276181954 -2.8105190260 1.5603773907
H 5.0939984961 -0.2234365290 2.0572745898
H 7.0061114604 0.8165268256 1.2024302397
H 6.8435812163 -1.1975409179 -1.0474113768
H 6.8619916312 -2.7902066475 -0.7096559036
H 8.1883850876 -0.8942757586 0.9613005090
H 7.5914983672 -1.4001019480 2.4423089743
H 5.4194551750 -2.6049302063 2.6317247583
H 4.5411636348 -3.0266852782 1.1418374945
H 6.1444824646 -3.7083655799 1.4613703823
C -0.0903686562 4.9384572753 0.9174216742
O -0.5209842304 3.9852899919 1.8796227789
C -1.1661380583 6.0928050265 0.8113908579
N -0.9934893004 7.0336575214 -0.2804433378
N -2.4774326124 5.4093779074 0.7242457104
C -1.1253784374 6.8904471100 2.1242571319
H 0.8349962995 5.3989327066 1.2907498220
H -1.5013096300 4.0829586011 1.8493907851
H -0.2068530388 7.6647264693 -0.1563499044
H -0.9516932174 6.6186983605 -1.2068469089
H -2.7243368486 5.2367220860 -0.2512170250
H -3.1981597468 6.0418930584 1.0713253510
H -1.2699988081 6.2362324215 2.9871010738
H -0.1613161311 7.3966072873 2.2395806469
H -1.9065883729 7.6559185670 2.1117553196
N -0.4191967234 -2.2444992998 0.0644422803
C -0.5038703008 -2.5885145214 1.3210658599
N -0.5844814326 -3.9026961414 1.5684101811
C -0.3054622801 -4.6482984445 0.3107235182
C -0.4270568460 -3.4888805232 -0.7337478884
H 0.4037983592 -3.4900364784 -1.4409289487
H -1.3672963893 -3.5507237313 -1.2930159423
H -1.0884907250 -5.3993522910 0.1799343446
H -0.3830428582 -4.3105481605 2.4734083767
N -0.4365107050 -0.2722341486 1.7990551424
C -0.5496520520 -1.4803609266 2.2976967664
N -0.6636904709 -1.5393929586 3.6242073586
C -0.8611184476 -0.1586603809 4.1447696908
C -0.3356136235 0.6672437698 2.9445111952
H 0.7188512121 0.9486762704 3.0679167811
H -0.9031150777 1.5778148659 2.7581586177
H -1.9345675401 0.0095249141 4.2832151534
H -0.9014901740 -2.3397043851 4.1958123955
C -0.1928832930 -0.0104840552 5.5149507868
O -0.7242489006 -1.1301443963 6.2288452860
C -0.4969858163 1.3323527798 6.2660315573
N -1.9309880745 1.5854516272 6.1313391079
N -0.1120496024 1.2564938575 7.6758994904
C 0.2842185471 2.5041222302 5.6553327109
H 0.8988455888 -0.1139926020 5.4053237976
H -0.2864498974 -1.1639055336 7.0956449625
H -2.4475035650 0.8270273559 6.5802698679
H -2.1593296420 2.4286553032 6.6580628070
H -0.6452567222 0.5846417128 8.2201685790
H 0.8845290408 1.1476561202 7.8472653719
H 1.3613749099 2.2989711796 5.6435327552
H -0.0464095373 2.7371596728 4.6399535085
H 0.1266812764 3.3911614126 6.2756115621
C 1.0875341135 -5.3190364304 0.3977391030
O 2.0892098923 -4.3138063409 0.3968279406
C 1.4245642957 -6.3957327760 -0.7112400476
N 0.3601917314 -7.3247674700 -1.0408379676
N 1.8419498793 -5.6139452437 -1.9037225121
C 2.6307196579 -7.2103598113 -0.2210951969
H 1.1251166260 -5.8383059940 1.3660408229
H 2.4234647550 -4.3546630907 -0.5312095355
H 0.2487707900 -8.0759192178 -0.3662889970
H -0.5449541697 -6.9017904335 -1.2226790238
H 1.0577470174 -5.5437455293 -2.5519347199
H 2.5526109930 -6.1368371646 -2.4150066935
H 3.4789478896 -6.5577991115 -0.0002760567
H 2.3826451740 -7.7637280003 0.6905476521
H 2.9199682484 -7.9342798963 -0.9887608268
N -2.2431168524 0.0828230461 -0.5001401006
C -2.6309659089 0.0422275719 -1.7454042163
N -3.9360079251 0.2515547753 -1.9578332569
C -4.5940077427 0.6327757179 -0.6791615261
C -3.4299793094 0.3633008648 0.3327700130
H -3.2375188210 1.2267566841 0.9716928124
H -3.6386204776 -0.5053282058 0.9660047079
H -5.4337968313 -0.0489870215 -0.5202661600
H -4.3433469166 0.4664829968 -2.8588299531
N -0.3725083980 -0.4609698991 -2.2817846410
C -1.5904675201 -0.2937825817 -2.7423734754
N -1.7307163401 -0.4460329777 -4.0595506917
C -0.4747432256 -1.0289578027 -4.6041607959
C 0.5085016770 -0.6847531260 -3.4561126497
H 1.0709968169 0.2375230630 -3.6513224413
H 1.2188012298 -1.4901469573 -3.2650274068
H -0.6054962684 -2.1134669978 -4.6770160650
H -2.5902600591 -0.4993396475 -4.5907121917
C -0.2011775626 -0.5036818448 -6.0164598669
O -1.4502480440 -0.7281720922 -6.6709639283
C 0.9749237234 -1.2220156058 -6.7695248330
N 0.8572791633 -2.6536558797 -6.4965242356
N 0.9327999077 -0.9612431865 -8.2087149623
C 2.3386183635 -0.7227889428 -6.2731222777
H 0.0150571923 0.5763421586 -5.9749156858
H -1.3643476507 -0.4047521367 -7.5837552274
H -0.0240301213 -2.9979123233 -6.8818999126
H 1.5941298942 -3.1411044035 -7.0066918424
H 0.1351481349 -1.3668499306 -8.6892136120
H 1.0674106725 0.0090582379 -8.4810918789
H 2.4389907143 0.3599357534 -6.4113322506
H 2.5042042072 -0.9624583057 -5.2193352502
H 3.1271525324 -1.2031273100 -6.8590883278
C -5.1156466721 2.0915610118 -0.7313275586
O -4.0319651220 3.0043280362 -0.6678419998
C -6.1884559154 2.4762679064 0.3674914431
N -7.2380963833 1.5037270338 0.6078090174
N -5.4065878005 2.7421435004 1.5965069781
C -6.8586263766 3.7857255751 -0.0754172406
H -5.6031775861 2.2126773435 -1.7089487553
H -4.0374772853 3.2910278027 0.2781916415
H -7.9395555065 1.4681828615 -0.1261333930
H -6.9192761991 0.5619935402 0.8150535963
H -5.3644283049 1.9000029672 2.1710848619
H -5.9047292357 3.4218053959 2.1706342269
H -6.1155839768 4.5666458228 -0.2540462739
H -7.4211732243 3.6385647801 -1.0030694560
H -7.5602020951 4.1186060271 0.6949380823
