166
# extracted from Terachem optimization
Cr -0.4133109237 -0.0882371054 -0.3803273298
O 0.0657387564 1.8585281643 -0.6664545396
C 1.4236040035 2.3015866665 -0.2571782624
O 1.3249426276 3.0937506361 0.8615316247
C 0.7133498434 4.3893719559 0.5869915320
C -0.4668386914 4.1612543471 -0.3173317127
C -0.7776727352 2.9790459119 -0.8455724235
H 0.3369203924 4.6990952099 1.5660928673
H -1.6222130168 2.7557257022 -1.4824022208
H -1.1251230108 4.9947809900 -0.5354247136
H 1.8138836217 2.8742305220 -1.1113109181
N 1.6079947766 -0.0770626761 -0.0335115696
C 2.2192424370 1.0601695893 0.0419718786
C 3.6559988964 1.2788710491 0.3725486131
C 4.4057281711 0.0395059328 0.8842019413
C 3.8862542929 -1.1616111246 0.0794497747
C 2.3756454187 -1.3241333772 0.2267122758
H 4.1598938076 -0.1147034878 1.9432960417
H 4.1370021627 -1.0188056488 -0.9789432178
H 4.3667365389 -2.0904472302 0.3929820271
H 4.1630916273 1.6054944062 -0.5546771210
H 3.7021508035 2.1401247714 1.0497314980
H 2.0952018063 -1.6583684224 1.2315801137
H 2.0060426809 -2.0816515279 -0.4685677326
C 5.9537566343 0.2814333189 0.7714939662
N 6.2583458162 0.5051429763 -0.6545355265
C 6.3341883331 1.5533502064 1.5539318587
C 6.7978925779 -0.9078694019 1.3269075517
C 6.5058053031 -1.3354065439 2.7667037953
O 6.6234283417 -2.0117004602 0.4251190276
H 7.0742111429 1.1070125749 -0.7544237852
H 6.5035344795 -0.3877743785 -1.0815043381
H 5.9389602680 1.5416761364 2.5745202267
H 7.4232904533 1.6521634997 1.6194741307
H 5.9545897243 2.4486269461 1.0515751093
H 7.8433554852 -0.5690578346 1.2713136456
H 5.4898855877 -1.7309819088 2.8735426344
H 7.2000844821 -2.1279208944 3.0668396062
H 6.6363051647 -0.5085958110 3.4720663762
H 7.3523146552 -2.6368159464 0.5644871569
C 1.7491124063 5.4587243604 0.0967252775
N 2.4074747878 4.9615985878 -1.1278486025
C 0.9892181938 6.7654271563 -0.2030993808
C 2.8358568245 5.7511815951 1.1828135907
C 2.3314326492 5.9795175657 2.6068962895
O 3.7891822274 4.6716195598 1.1557349344
H 2.3626355123 5.6492498218 -1.8759589904
H 3.3894918621 4.7813426368 -0.9265333775
H 0.3587699573 7.0890706936 0.6314911253
H 1.6992387819 7.5710782804 -0.4147235425
H 0.3498150189 6.6526166154 -1.0844712324
H 3.3419344578 6.6635123988 0.8355962257
H 1.9526147560 5.0498682774 3.0434159407
H 3.1548657987 6.3276138810 3.2400506446
H 1.5503299181 6.7452489224 2.6525462633
H 4.5848038831 4.9754351285 1.6211320615
O -0.7256700268 -2.0601945986 -0.1053074951
C -0.9596504903 -2.4992114398 1.3059446344
O 0.0932150005 -3.2807172090 1.7149716865
C 0.1548915331 -4.5757016460 1.0466537014
C -0.1249493958 -4.3563726533 -0.4126267743
C -0.4825401496 -3.1819712162 -0.9280063754
H 1.2060961093 -4.8597665087 1.1530645526
H -0.6653604606 -2.9759636127 -1.9730185650
H -0.0049504787 -5.1866234873 -1.0999715773
H -1.8951276475 -3.0747742790 1.2736352547
N -0.8352468468 -0.1202763507 1.6164899056
C -1.0420226121 -1.2667141285 2.1752355954
C -1.3750554024 -1.4993701114 3.6092913123
C -1.1996786685 -0.2715506285 4.5192430261
C -1.6936844739 0.9531086840 3.7308600103
C -0.9383654577 1.1258392295 2.4170796637
H -0.1313615906 -0.1447891882 4.7392693449
H -2.7650163339 0.8302416143 3.5259339137
H -1.5942243275 1.8706098409 4.3131981497
H -2.4395771715 -1.7958566005 3.6627682805
H -0.8106744347 -2.3809062729 3.9337883148
H 0.0861741378 1.4839784672 2.5685919805
H -1.4350417214 1.8673776438 1.7827954440
C -1.9551954900 -0.5079908390 5.8755817626
N -3.3822060901 -0.6988488119 5.5536163837
C -1.4336239419 -1.7949420283 6.5436360284
C -1.7806902847 0.6735806948 6.8841388434
C -0.3425432146 1.0886442614 7.2007242633
O -2.5249197710 1.7877656517 6.3670482858
H -3.8246827152 -1.3065085569 6.2409295525
H -3.8550127146 0.2024639417 5.6163151540
H -0.3422329269 -1.8046964871 6.6250658249
H -1.8440632703 -1.8931932143 7.5544907794
H -1.7427021737 -2.6795863404 5.9780596491
H -2.2582215117 0.3318375799 7.8146495626
H 0.1680706016 1.4824942415 6.3152613168
H -0.3427630045 1.8800509077 7.9584432657
H 0.2441715138 0.2576231528 7.6053478362
H -2.6756149567 2.4139454414 7.0927084166
C -0.7235203014 -5.6646465793 1.7515124101
N -2.1301111248 -5.2161505089 1.7452201278
C -0.5699792858 -6.9831247308 0.9676943350
C -0.2704969854 -5.9096158956 3.2278893475
C 1.2308302921 -6.0730819191 3.4617360149
O -0.7877748315 -4.8361706412 4.0373870013
H -2.7391814820 -5.9108910566 1.3199814933
H -2.4389641887 -5.0704718521 2.7043945094
H 0.4782288357 -7.2541612465 0.8053106883
H -1.0443547953 -7.8041758031 1.5140833486
H -1.0569640341 -6.9192295901 -0.0109005691
H -0.7776759600 -6.8386193993 3.5256273695
H 1.7631351054 -5.1329483239 3.2858432036
H 1.4112877069 -6.3614835996 4.5030554157
H 1.6672915263 -6.8586873935 2.8359322304
H -0.7392848651 -5.1249542521 4.9627140565
O -2.3522135928 0.2190041896 -0.9685800117
C -2.6825102803 0.1361424305 -2.4116681580
O -3.2000541145 1.3439237962 -2.8176997671
C -4.5335726446 1.5985853613 -2.2749929316
C -4.5351628031 1.1774464502 -0.8292467666
C -3.4987882100 0.5894503079 -0.2356547098
H -4.6086034579 2.6897428271 -2.3041963391
H -3.4254770272 0.3040373828 0.8045921542
H -5.4033190960 1.4015825004 -0.2196582251
H -3.4318775110 -0.6628539396 -2.5057203363
N -0.3381093104 -0.3726644905 -2.4478945017
C -1.4011831879 -0.1684904630 -3.1522243956
C -1.5107674293 -0.2372210496 -4.6383276658
C -0.1737251287 -0.3333807072 -5.3926970473
C 0.7603779019 -1.2229780212 -4.5571632100
C 0.9382826007 -0.6761774771 -3.1440200039
H 0.2673954099 0.6698242517 -5.4637308842
H 0.3412646114 -2.2364770342 -4.5102036725
H 1.7434232993 -1.3190694463 -5.0210711232
H -2.0871917722 -1.1481141523 -4.8865999484
H -2.1391835589 0.6024018394 -4.9544588746
H 1.5201592658 0.2544410869 -3.1448746035
H 1.4861761850 -1.3922995744 -2.5258055303
C -0.4357107240 -0.8559029959 -6.8524902977
N -1.0757297328 -2.1798865272 -6.7353649296
C -1.4137746082 0.0937358318 -7.5699530470
C 0.8667422619 -0.9607698383 -7.7078330063
C 1.7224338443 0.3034916095 -7.8053691727
O 1.6352010395 -2.0508478127 -7.1742119950
H -1.6770363889 -2.3557218046 -7.5385968441
H -0.3493071527 -2.8954487236 -6.7563373647
H -1.0889020095 1.1374138709 -7.5163772803
H -1.4986692575 -0.1741066994 -8.6288416071
H -2.4152125830 0.0248361032 -7.1340011187
H 0.5274445720 -1.2324333844 -8.7187769304
H 2.1214822131 0.5968952940 -6.8285183489
H 2.5767537230 0.1233482331 -8.4673505130
H 1.1641432441 1.1462929427 -8.2254333337
H 2.3022443503 -2.3019863129 -7.8326500143
C -5.6736479210 1.0056760522 -3.1714311375
N -5.4186754125 -0.4349673136 -3.3730969313
C -7.0163154323 1.2054662840 -2.4442642304
C -5.7446263173 1.7147446683 -4.5620152883
C -5.7985626799 3.2422166840 -4.5526400740
O -4.6264229123 1.2536712639 -5.3409931066
H -6.2661173832 -0.9793068484 -3.2298637240
H -5.1156930727 -0.5821663061 -4.3348620586
H -7.1555040924 2.2329657028 -2.0932130519
H -7.8481304678 0.9716533219 -3.1163249703
H -7.0936661452 0.5385744792 -1.5793539525
H -6.6689893092 1.3333047285 -5.0212606733
H -4.8493131915 3.6741037486 -4.2188613453
H -5.9847114534 3.6108022080 -5.5673185320
H -6.6092100965 3.6237533345 -3.9236495464
H -4.7848180637 1.5192474904 -6.2609310279
