157
# extracted from Terachem optimization
Cr 0.1731784946 0.1800147689 0.0168850465
O -0.0654739948 2.2882108055 -0.0662822892
C 1.0226340854 2.9503980159 -0.8693997667
N 1.0478891323 4.3553680417 -0.7681561303
C -0.2298079654 5.0876864083 -0.9493897664
C -1.3761846153 4.3372014113 -0.2419537961
C -1.3497834110 2.8381808312 -0.5028809848
H -0.0927069500 6.0487936161 -0.4494532597
H 1.5613691738 4.6556516917 0.0554957941
H 0.7905602622 2.6324763914 -1.8862986044
H -2.1057045880 2.3053775915 0.0724341513
H -1.4668279420 2.5937378166 -1.5645037517
H -2.3551663210 4.7331330303 -0.5274948624
H -1.2754455092 4.4965718998 0.8389193945
O 2.1141685973 0.8806405958 -0.3297185797
C 2.3403983446 2.3436439854 -0.4063817392
N 2.8178495772 2.8655121761 0.8279149999
C 4.1185970771 2.2920469221 1.2518997515
C 4.0780732584 0.7405415223 1.1640000252
C 3.3846822077 0.1959292516 -0.0875038360
H 4.2292563127 2.5703612536 2.3043939247
H 2.1198975403 2.7490023445 1.5611588812
H 3.1047956661 2.4955643405 -1.1692632339
H 3.1193486232 -0.8557366835 0.0279060329
H 3.9979802050 0.3333146003 -0.9793469790
H 5.0856651459 0.3110766406 1.2008962929
H 3.5416418649 0.3700468343 2.0462050405
C 5.3083820117 2.9455747065 0.4828915909
O 5.2652545972 2.5311078965 -0.8758415001
C 5.2688734604 4.4810049990 0.5556864949
C 6.6566776768 2.4383815419 1.0710497216
O 7.3622719910 1.7611971254 0.3420207124
C 7.0930409238 2.8313084027 2.4606075182
H 6.1408870591 2.1163980523 -1.0458662786
H 5.2455312114 4.8466293297 1.5876727557
H 6.1496128347 4.8976598302 0.0575266688
H 4.3796875516 4.8509108168 0.0415790240
H 7.5376120686 3.8342399393 2.4204903183
H 6.2679010358 2.8750489284 3.1779030512
H 7.8606241380 2.1373424887 2.8090081513
C -0.4181864575 5.4542917802 -2.4493404617
O -0.1398474462 4.3350496243 -3.3112689782
C -1.8409046275 5.9130836405 -2.7873253163
C 0.5316973920 6.6490522829 -2.7769525981
O 0.7940454092 7.4657239637 -1.9179022430
C 1.0690772538 6.7618501263 -4.1898513505
H 0.8253519654 4.2553467874 -3.3744863300
H -2.1749858017 6.6922100911 -2.0956866374
H -1.8809630145 6.3150137686 -3.8036541008
H -2.5354576857 5.0682928009 -2.7418790570
H 0.3568733530 6.4084992598 -4.9399437784
H 1.3483011363 7.7997827403 -4.3805271275
H 1.9787835563 6.1526122326 -4.2890037209
O 0.8324333912 -1.7867362697 0.4766983061
C 0.1615646252 -2.4403733241 1.6802013652
N 0.6455335642 -3.7217342555 1.9901322733
C 0.8301847975 -4.7082741195 0.9037052971
C 1.4846428934 -4.0236240939 -0.3098379771
C 0.8121589799 -2.7032514702 -0.6639429215
H 1.5248702746 -5.4520111134 1.2994676036
H 1.4448467167 -3.6672082810 2.6155593523
H -0.8801348024 -2.4692027172 1.3668185313
H 1.3459014384 -2.1888924548 -1.4665577811
H -0.2295879244 -2.8581914700 -0.9603055118
H 1.4796521274 -4.6677379613 -1.1944668443
H 2.5376863508 -3.8292558665 -0.0691975569
O 0.1083155885 -0.1406374835 2.4247042883
C 0.3485442833 -1.5002874819 2.8769716864
N 1.6376722291 -1.6347916362 3.4968270992
C 1.7991620368 -0.7773171080 4.6979207077
C 1.3661443443 0.6802378680 4.3793372987
C 0.0788411729 0.7741406401 3.5519123875
H 2.8729035157 -0.7770688335 4.9094934827
H 2.3638059791 -1.4043744625 2.8187718982
H -0.4088547809 -1.7504857874 3.6240109937
H -0.0419845055 1.7711616298 3.1188504279
H -0.7984901043 0.5433940693 4.1615721034
H 1.2298901082 1.2688634843 5.2937466891
H 2.1797443432 1.1580675640 3.8169836751
C 1.0957353796 -1.3964050332 5.9449326779
O -0.3129761106 -1.3291400996 5.7684360675
C 1.5157386870 -2.8573486187 6.1767771087
C 1.4328912619 -0.5585339642 7.2124671729
O 0.5061312583 0.0102547094 7.7657449712
C 2.8358489873 -0.5144560573 7.7647865317
H -0.6431938217 -0.8325928249 6.5508867884
H 2.6027441183 -2.9677604458 6.2487659146
H 1.0625513061 -3.2317239598 7.0997994020
H 1.1632366888 -3.4749392356 5.3484719826
H 3.0342485101 -1.4443554111 8.3129766016
H 3.6004929287 -0.4334771696 6.9860553016
H 2.9219262694 0.3184133998 8.4652380802
C -0.4777280865 -5.5025947138 0.6460020562
O -1.5783320605 -4.6233067584 0.3347038814
C -0.3508185436 -6.4769427333 -0.5354475548
C -0.7634465993 -6.3728263420 1.9043730372
O 0.1617121221 -6.8989507324 2.4874834170
C -2.2068867318 -6.5800690037 2.3242574217
H -2.0793866556 -4.4558744404 1.1472227340
H 0.5444633078 -7.0982481051 -0.4390531856
H -1.2229775781 -7.1361244951 -0.5770147386
H -0.3115524141 -5.9293400221 -1.4819955294
H -2.8751463582 -6.7053168922 1.4667751544
H -2.2618626521 -7.4513986520 2.9790804732
H -2.5606711034 -5.7125283029 2.9010241810
O -1.8896320122 -0.4206022225 -0.0471499996
C -2.6268784119 -0.8416597340 -1.2899571929
N -3.8283945538 -0.1265445446 -1.4804651362
C -4.7856795403 -0.0087055695 -0.3583594770
C -4.0367122231 0.2388560223 0.9659835542
C -2.7787786914 -0.6108362319 1.0988376288
H -5.3907744673 0.8702327836 -0.5887610763
H -3.6638893322 0.7566457589 -1.9527084279
H -2.8404182187 -1.8934272346 -1.0877471288
H -2.1852006565 -0.3348335150 1.9688296527
H -3.0351320110 -1.6747945594 1.1475016692
H -4.6751790171 0.0480819004 1.8339084893
H -3.7565507579 1.2978651675 1.0199520958
O -0.5050328912 0.0380858766 -2.2089027652
C -1.6791953289 -0.7398310304 -2.5326010407
N -2.3630179395 -0.0843148220 -3.6281176461
C -1.6199616980 0.0467520408 -4.8915336132
C -0.2822161989 0.7365360214 -4.5494836071
C 0.4040343987 0.0923641488 -3.3501777412
H -2.2087808271 0.7400650559 -5.5018656220
H -3.2926907926 -0.4707651014 -3.7594828916
H -1.3209424617 -1.7466408329 -2.7781059054
H 1.2584331932 0.6814998047 -3.0102226800
H 0.7339026302 -0.9240826277 -3.5794998133
H 0.4079459570 0.7098633230 -5.4001431246
H -0.4876254102 1.7877857847 -4.3183241916
C -1.4764866160 -1.2774095871 -5.7183255230
O -0.7179385696 -2.2202972805 -4.9708033461
C -2.8506581465 -1.8858135706 -6.0568533953
C -0.7015498504 -1.0104658504 -7.0376662860
O 0.3585333321 -1.5974153401 -7.1862568659
C -1.2725329058 -0.1069593353 -8.1011213836
H 0.0100356377 -2.4856131530 -5.5776201062
H -3.5040153973 -1.1774381326 -6.5769990565
H -2.7235812289 -2.7712579152 -6.6868942613
H -3.3492175854 -2.2131229533 -5.1389537692
H -2.0694233710 -0.6389052920 -8.6364224436
H -1.7171612279 0.8034954321 -7.6869840866
H -0.4907905600 0.1496830884 -8.8185545105
C -5.7954926288 -1.1880610046 -0.3660569302
O -5.1222396341 -2.4521828580 -0.2237339951
C -6.8043993856 -1.1025678988 0.7902862232
C -6.6218876319 -1.1091650441 -1.6792960094
O -6.8841932428 -0.0270298751 -2.1637545893
C -7.1206325759 -2.4070763603 -2.2888606593
H -4.9701905085 -2.8340888855 -1.1013341233
H -7.2559265634 -0.1076925843 0.8493416229
H -7.6035169279 -1.8364670430 0.6517615683
H -6.3146397321 -1.3362855338 1.7400892410
H -7.3953091905 -3.1488386837 -1.5332985445
H -7.9727278384 -2.1891338366 -2.9353662282
H -6.3364955055 -2.8523355586 -2.9192841976
