103
# extracted from Terachem optimization
Cr -0.2117269076 0.0253773139 -0.0485800204
N -0.2714184957 2.1127191758 -0.3484034976
C 0.8740075482 2.7410571730 -0.3114385084
O 1.0583544839 4.0368853058 -0.5092168039
C -0.0861051109 4.9621589358 -0.4246674622
C -1.3397548135 4.2302214380 -0.8062089976
C -1.3892533264 2.8964446360 -0.7240434292
H -0.1139720895 5.3193543316 0.6125250822
H -2.2862720668 2.3359574413 -0.9500816742
H -2.2072153394 4.8103369598 -1.0972110022
N 1.8305475535 0.6172051258 0.0379495388
C 2.0833956105 1.9425967934 -0.1142632539
C 3.3645770074 2.4929279858 -0.0946807518
C 4.4622691415 1.6446365748 0.0646271034
C 4.2054219953 0.2781216444 0.2311605209
C 2.8950917963 -0.1858589828 0.2216993194
H 3.4993894968 3.5602024159 -0.2152386582
H 2.6845124820 -1.2408791769 0.3486550353
H 5.0152346647 -0.4342703069 0.3418727627
C 5.8809928803 2.1940048617 0.0454667616
O 5.7917316602 3.5638382066 -0.1021090285
C 6.7261919248 1.7863480075 1.2497152488
Cl 6.6824386026 1.4467127257 -1.4814208913
H 6.6840889905 3.9491878816 -0.0757420051
H 6.8081451151 0.7023056373 1.3499342133
H 7.7389928459 2.1866731995 1.1419106238
H 6.2760763909 2.2024409895 2.1577042839
C 0.2938700836 6.1791385589 -1.2965422094
O 1.4387006381 6.6911812161 -0.7215496958
C 0.4360388461 5.8870284485 -2.7832527800
Cl -1.1208217770 7.3743873418 -1.0684118819
H 1.7536129500 7.4482082841 -1.2449770581
H -0.4830102301 5.4717973994 -3.2039857508
H 0.6682669879 6.8089093229 -3.3246547169
H 1.2578464886 5.1780865435 -2.9295701874
N 0.1229265829 -2.0447383223 0.2473657625
C 0.2713168954 -2.3756984528 1.5042194993
O 0.4366578368 -3.6085534697 1.9624952614
C 0.8899751339 -4.6632498771 1.0402093293
C 0.3602282534 -4.3735522045 -0.3332777376
C 0.0397553034 -3.1201166959 -0.6701204528
H 1.9870615082 -4.6501267046 1.0737016131
H -0.3050953411 -2.8597572193 -1.6621879632
H 0.2947661658 -5.1854012510 -1.0475232735
N -0.0280348034 -0.0826238666 2.0297695707
C 0.1853764671 -1.3284289781 2.5274817745
C 0.3117839871 -1.5959243580 3.8908000113
C 0.1916416203 -0.5437990103 4.8022045666
C -0.0143053818 0.7422020427 4.2879151680
C -0.1079605712 0.9284455991 2.9133652272
H 0.4862366430 -2.6080546816 4.2319353261
H -0.2721131418 1.9129759571 2.4898336864
H -0.1328648288 1.5955489315 4.9463691559
C 0.2858578125 -0.7978640124 6.2998899524
O 0.4265004106 -2.1603010036 6.4803035471
C 1.3863042113 0.0042668391 6.9921485760
Cl -1.3536257019 -0.2353157002 7.0184674594
H 0.5267596881 -2.3491868275 7.4288200414
H 1.2666682015 1.0797087801 6.8456767819
H 1.3636627845 -0.1904882458 8.0687596221
H 2.3579658043 -0.3096935397 6.5953280722
C 0.4503371007 -5.9996697085 1.6762863807
O 1.0945934652 -6.0495886015 2.8955477042
C -1.0547536770 -6.2060265616 1.7727239699
Cl 1.1450808335 -7.3033961170 0.5359438037
H 0.8326114195 -6.8585965264 3.3679476056
H -1.5337000546 -6.1481414621 0.7924593956
H -1.2694079643 -7.1919538142 2.1954950303
H -1.4796436534 -5.4417338389 2.4316645327
N -2.2565820365 -0.3228502080 -0.2108128307
C -2.6787928090 -0.5092545898 -1.4336193622
O -3.9205660507 -0.8083815651 -1.7848154396
C -5.0280423089 -0.6263726098 -0.8274094917
C -4.5009322543 -0.7289887173 0.5745940820
C -3.1995411016 -0.5476733446 0.8196135476
H -5.4517210843 0.3635333860 -1.0377329298
H -2.7777446479 -0.5645688041 1.8165324395
H -5.2078610313 -0.8979559217 1.3779086719
N -0.4303800018 -0.2027681707 -2.1177034540
C -1.6996467441 -0.4693578456 -2.5232884494
C -2.0437469741 -0.7044807088 -3.8544609533
C -1.0400746074 -0.6854239339 -4.8259761140
C 0.2657218731 -0.3957942524 -4.4093464549
C 0.5236590565 -0.1537002667 -3.0646574432
H -3.0713451854 -0.9138051580 -4.1218394628
H 1.5282492410 0.0672161580 -2.7194766180
H 1.0875185039 -0.3830323738 -5.1167020320
C -1.3681164625 -0.9710240309 -6.2848281487
O -2.7103991129 -1.2888650943 -6.3498797980
C -0.9826226823 0.1599424329 -7.2357964612
Cl -0.3449857318 -2.4736746313 -6.7542099815
H -2.9627760596 -1.4299211891 -7.2782825337
H 0.0813100459 0.3995423391 -7.1811134963
H -1.2064192917 -0.1317983251 -8.2665444540
H -1.5682079515 1.0510620934 -6.9844989615
C -6.1054836447 -1.6575369792 -1.2326394772
O -6.4585420814 -1.3222355159 -2.5240075691
C -5.6959137164 -3.1144587834 -1.0704589207
Cl -7.5312633621 -1.3219950174 -0.0779802365
H -7.1160613003 -1.9584826117 -2.8542282584
H -5.4175261488 -3.3434311155 -0.0387755102
H -6.5272784659 -3.7692418789 -1.3476315230
H -4.8486904077 -3.3238017822 -1.7320034885
