157
# extracted from Terachem optimization
Cr -0.1129392009 -0.4524779812 -0.5444531202
N 0.0390253282 1.6593382384 -0.8896995443
C 1.2458715447 2.0834644847 -0.7476004342
O 1.4940357589 3.3743241594 -0.9176930943
C 0.1824259746 4.0360449745 -1.1062637304
C -0.7896882280 2.8281154240 -1.2331924531
H -1.6451073323 2.8919882986 -0.5580298328
H -1.1784807849 2.7078143583 -2.2496300214
H 0.2777176218 4.6238055621 -2.0190269016
N 1.9814887556 -0.1132268816 -0.3026342361
C 2.3324228578 1.1417415373 -0.4361229880
C 3.7410460324 1.3864929096 -0.2644890536
C 4.3091688563 0.1795324958 -0.0053111898
C 3.2139463984 -0.8531330950 -0.0238437244
H 3.1187812286 -1.4172780113 0.9116096919
H 3.3632113139 -1.5990353032 -0.8169532676
H 4.2392756323 2.3434014612 -0.3290586755
C 5.7858546462 -0.0684841013 0.2880182748
N 6.2524714519 -1.1375520941 -0.5916802412
O 6.5328468787 1.0902777792 -0.0279199717
C 5.9445077941 -0.2947282920 1.7990712436
C 5.8640339451 0.7979962165 2.6794312688
C 6.0063314025 0.6302333040 4.0491039543
C 6.2295324310 -0.6522968380 4.5719463158
O 6.3504536226 -0.7566839278 5.9235754479
C 6.3064291672 -1.7518066738 3.7110761551
C 6.1608625753 -1.5663572012 2.3353747416
H 7.2296352114 -1.3332941593 -0.3720499197
H 5.7372980000 -2.0048867803 -0.4558108109
H 6.6331484062 1.0906552118 -0.9973388152
H 5.7149663425 1.7960916530 2.2807223101
H 5.9548283476 1.4746037508 4.7290371332
H 6.5849017078 -1.6661213985 6.1699495600
H 6.4947138844 -2.7465405899 4.1093890472
H 6.2489161434 -2.4306749199 1.6827509971
C -0.0076581183 4.9780599905 0.1119948570
N -0.1857486329 4.1234310642 1.3171139506
O 1.1865914568 5.7120908394 0.2836555692
C -1.1273987993 5.9938963499 -0.0867425965
C -1.1746917489 7.1028206147 0.7778566611
C -2.1842539250 8.0475841249 0.6867372397
C -3.1875173023 7.9092852348 -0.2849279444
O -4.1484110401 8.8667507229 -0.3185232575
C -3.1548951411 6.8170744966 -1.1568487518
C -2.1303524311 5.8726770703 -1.0536530816
H 0.1164075779 4.6911904140 2.1092619261
H -1.1821646274 3.9665729842 1.4690830026
H 1.9090736483 5.0689353737 0.3883618008
H -0.3891952973 7.2369047294 1.5147297399
H -2.2102902251 8.9085514786 1.3466469057
H -4.7620515533 8.7023267139 -1.0524424593
H -3.9192996950 6.7074263197 -1.9229702605
H -2.1339354527 5.0509656481 -1.7652728981
N 0.0753065137 -2.4518292120 0.2049595663
C -0.0334232858 -2.6421449121 1.4743143342
O 0.0689072509 -3.8869915026 1.9330586634
C 0.3631254501 -4.7573008032 0.7776554319
C 0.3187092833 -3.7671786654 -0.4151653029
H 1.2628884890 -3.7410853380 -0.9644413874
H -0.4858372644 -3.9936849264 -1.1219552021
H -0.4335671242 -5.5018367420 0.7593343529
N -0.5901860581 -0.3803208751 1.9622438426
C -0.2860232252 -1.5536390444 2.4378660764
C -0.2106105020 -1.6252521596 3.8847055878
C -0.4718605849 -0.3751849165 4.3396740910
C -0.7377311223 0.4874749388 3.1321939562
H -0.0494569400 1.3377293032 3.0372287540
H -1.7544256992 0.9069307047 3.1337476243
H 0.0248882366 -2.4990364410 4.4758265938
C -0.4329288737 0.0811454175 5.7945442378
N -1.6847710134 0.7715490397 6.1010596641
O -0.3557094986 -1.0437655741 6.6475781746
C 0.8604855712 0.8868292428 5.9999013579
C 2.0643839940 0.2258466397 6.2944934275
C 3.2518618029 0.9282645863 6.4477659530
C 3.2602625693 2.3217411308 6.2965551447
O 4.4603359864 2.9527224310 6.4318264063
C 2.0706092109 2.9974561254 6.0065572050
C 0.8841695128 2.2773194298 5.8591560530
H -1.6171013546 1.1594372862 7.0425438188
H -1.8627122569 1.5513648784 5.4717509737
H -1.2640077820 -1.3897564339 6.7102264624
H 2.0611530497 -0.8502052099 6.4287599237
H 4.1796528377 0.4198011625 6.6889098262
H 4.3363071708 3.9150799834 6.4017917836
H 2.0660968740 4.0812449764 5.9102027368
H -0.0317711377 2.8271274075 5.6566625056
C 1.7203306157 -5.4483831172 1.0663968028
N 2.7896633422 -4.4086034612 0.9932599955
O 1.6740458990 -5.9580144364 2.3844608569
C 1.9821028132 -6.6270525346 0.1355007307
C 3.0177153728 -7.5193869955 0.4702020670
C 3.3278138369 -8.6002414686 -0.3402513021
C 2.6030376173 -8.8211233995 -1.5217798236
O 2.9550010930 -9.8954871137 -2.2704683225
C 1.5696194308 -7.9462025071 -1.8696311187
C 1.2665435609 -6.8628120242 -1.0424805141
H 3.4220625201 -4.5976097640 1.7706276510
H 3.3426143750 -4.5735391847 0.1532416124
H 1.3893908320 -5.2359969754 2.9711943705
H 3.5672973408 -7.3759965973 1.3951458698
H 4.1173572939 -9.2950586574 -0.0737174368
H 2.3714931557 -9.9761742614 -3.0419708551
H 0.9942995386 -8.1135223416 -2.7772098193
H 0.4438943395 -6.2188373015 -1.3408516159
N -2.2219190084 -0.7138073414 -0.8446641489
C -2.6247686907 -0.9359532512 -2.0466057019
O -3.9245645547 -1.1202397833 -2.2533225098
C -4.6059456821 -0.9128313216 -0.9599396444
C -3.4170817152 -0.7065398779 0.0179970751
H -3.4755530867 0.2433965005 0.5531018318
H -3.3426231359 -1.5085798781 0.7586792054
H -5.1716449975 -1.8264546580 -0.7751214829
N -0.4327875894 -0.8945848865 -2.9924357554
C -1.7132821295 -1.0214459537 -3.2030932808
C -2.0880832472 -1.2283958026 -4.5869169551
C -0.9346822568 -1.2165062945 -5.2991459018
C 0.1879282689 -1.0019229512 -4.3163554967
H 0.7599666746 -0.0885718301 -4.5264625582
H 0.9077357087 -1.8325162399 -4.3102253411
H -3.0910950073 -1.3596551424 -4.9674269444
C -0.8125009289 -1.3351035264 -6.8150432700
N 0.1998202736 -2.3445931992 -7.1214834172
O -2.0370850184 -1.7974660527 -7.3508235751
C -0.5761149965 0.0718848245 -7.3850220014
C -1.6651930977 0.9171837587 -7.6562159139
C -1.4704152695 2.1989159381 -8.1517190341
C -0.1704296877 2.6723095032 -8.3822030845
O -0.0486696315 3.9359859398 -8.8660478141
C 0.9250105377 1.8454206897 -8.1087064188
C 0.7147214914 0.5583301918 -7.6130544614
H 0.3208159623 -2.3808066060 -8.1342844576
H 1.1089061019 -2.1162730841 -6.7243247259
H -2.0527883259 -2.7574408651 -7.1870966762
H -2.6747554809 0.5515275651 -7.5040062130
H -2.3102728992 2.8451543119 -8.3854193258
H 0.8820999580 4.1295599048 -9.0620535228
H 1.9368628812 2.1972148487 -8.2980272956
H 1.5812761928 -0.0736604385 -7.4351306214
C -5.5809210672 0.2793358860 -1.1470730359
N -4.7644742049 1.5114361426 -1.3164460103
O -6.3020907424 0.0611074785 -2.3420748001
C -6.6022645118 0.3784021529 -0.0185400811
C -7.7412084347 1.1794874981 -0.2217796367
C -8.6936181730 1.3432577634 0.7716571457
C -8.5325533099 0.7041615379 2.0108041245
O -9.5007345593 0.9058501631 2.9396128221
C -7.4083553687 -0.0968971768 2.2306908224
C -6.4574794917 -0.2547760979 1.2197246115
H -5.2881008581 2.1157423883 -1.9498613098
H -4.7350079436 2.0175923846 -0.4319287760
H -5.6528646607 -0.0571563321 -3.0571115069
H -7.8917600233 1.6572050455 -1.1845970108
H -9.5780917792 1.9502265409 0.6084166116
H -9.3137648236 0.3860555575 3.7376475224
H -7.2778778797 -0.6063223067 3.1828628359
H -5.6095597503 -0.9020390417 1.4275199695
