133
# extracted from Terachem optimization
Cr 0.2675692016 0.2099876918 0.2878219643
N 0.5857420745 2.3296993792 0.5279071281
C 1.8436035442 2.6157489150 0.7665796374
S 2.5145065251 4.1923487372 1.0516308916
C 1.2391781046 5.2349175707 0.1856812168
C -0.1234762760 4.6575445566 0.4562911376
C -0.3841580784 3.3401175605 0.5360645614
H 1.3346237593 6.2006603555 0.6897841491
H -1.4028041618 2.9840765074 0.6312460706
H -0.9525359206 5.3550377745 0.5094524693
N 2.3066171086 0.2767844157 0.5408999527
C 2.7648026538 1.4616024479 0.8512928742
O 3.9776373448 1.7379521837 1.2603147976
C 5.0644906125 0.7246776372 1.2392659276
C 4.4689455100 -0.6418027945 1.0585202076
C 3.1900830522 -0.8174695780 0.7089130394
H 5.5252805697 0.8301151193 2.2253967794
H 2.7382532434 -1.7876376030 0.5507762738
H 5.1154165019 -1.4988971696 1.2094307216
C 6.0866586708 1.1365663131 0.1560074447
C 7.3064469672 0.1943895848 0.1826775484
C 6.4905060500 2.6025954724 0.3144068849
C 7.1184842429 3.0651702880 1.4038039934
N 6.0665431769 3.4229548957 -0.7522971513
H 5.5784500921 1.0228466479 -0.8116698887
H 8.0454888271 0.5263828924 -0.5514033110
H 7.7945885358 0.2038768378 1.1625939923
H 7.0335434522 -0.8375614623 -0.0611370544
H 7.4151435527 4.1057001485 1.4969771224
H 7.3526320843 2.4211672344 2.2444253046
H 6.2482112794 3.0178779865 -1.6674960425
H 6.4795317888 4.3512864232 -0.7163579404
C 1.5506404167 5.4188150385 -1.3249708940
C 2.9337697772 6.0487491465 -1.5660628670
C 0.4342421501 6.2333340324 -1.9831727689
C 0.0050278979 7.4091939066 -1.4969055824
N -0.1336841999 5.6005215911 -3.1025654563
H 1.5297740432 4.4167107016 -1.7744651007
H 3.0860129913 6.2213009443 -2.6365562947
H 3.0114873350 7.0189898459 -1.0645184510
H 3.7421405797 5.3989799000 -1.2124667446
H -0.7622806584 7.9909216568 -1.9989823156
H 0.4152839642 7.8356368987 -0.5884020431
H 0.5536401061 5.1877285349 -3.7271185491
H -0.7540912688 6.2060035553 -3.6331555221
N 0.0630602703 -1.7849881262 0.3447862890
C 0.2046878345 -2.2585896829 1.6144049643
S 0.5748282013 -3.9251806866 1.9983748461
C -0.3246402192 -4.7733434007 0.6064241882
C -0.0957462083 -4.0003307943 -0.6635484942
C 0.0436031561 -2.6579188960 -0.7312631826
H 0.1943931975 -5.7367061499 0.5495474608
H 0.1480552424 -2.1699325481 -1.6933890304
H -0.0902626281 -4.5563394756 -1.5937416613
N -0.0089502122 0.0053170995 2.2908618079
C 0.1706888624 -1.2830705642 2.6444244730
O 0.3866850341 -1.6960693335 3.8872537236
C 0.1134394331 -0.8407151786 5.0514636934
C 0.0439169621 0.5956006350 4.6267957974
C -0.0070522794 0.9436523943 3.3312327498
H 0.9805031834 -1.0059800351 5.6981965875
H -0.0671330000 1.9789281834 3.0192189999
H 0.0426708000 1.3573772741 5.3973259405
C -1.1472055527 -1.3845637122 5.7622510496
C -1.4980482576 -0.5282983063 6.9954870255
C -0.9829169767 -2.8567462448 6.1399215864
C 0.0324575289 -3.3064099341 6.8908538523
N -1.9714299480 -3.6960584484 5.5919835286
H -1.9669466332 -1.3087235214 5.0343375416
H -2.3525236879 -0.9630419272 7.5223594547
H -0.6639529528 -0.4968131387 7.7043016513
H -1.7628242041 0.4976343975 6.7191057674
H 0.1149670642 -4.3506358869 7.1775429624
H 0.8236234822 -2.6493612278 7.2343587665
H -2.9070495496 -3.3007953842 5.6156960461
H -1.9823989769 -4.6220813663 6.0097617309
C -1.8155180804 -5.0369194092 0.9550743271
C -1.9718496842 -5.7710788481 2.3057831078
C -2.5446912887 -5.8040526535 -0.1469603006
C -1.9682359602 -6.5926606772 -1.0632861229
N -3.9494310063 -5.5822438386 -0.1231680540
H -2.3063801346 -4.0573895693 1.0365728942
H -3.0159776858 -6.0537438137 2.4808020322
H -1.3820047792 -6.6949763723 2.3169399152
H -1.6656615357 -5.1400853431 3.1451101432
H -2.5608896578 -7.1542559699 -1.7802930627
H -0.8948009562 -6.7199706172 -1.1311240940
H -4.3407131647 -5.7475489629 0.8031594664
H -4.4371612815 -6.1914946202 -0.7767936890
N -1.8292746277 0.5095229572 -0.1051522184
C -2.1119200832 0.7193229330 -1.3667841278
S -3.6759370085 1.0362311197 -2.0471636831
C -4.7489231584 0.2394352221 -0.7499718379
C -4.1548801069 0.5114602511 0.6054852144
C -2.8353041073 0.5593761571 0.8668447274
H -5.6923766044 0.7829512901 -0.8512721421
H -2.4717501910 0.6396862883 1.8840044533
H -4.8504631777 0.5837553095 1.4351058991
N 0.2265444445 0.4546448884 -1.7913200759
C -0.9510046552 0.7309361127 -2.2839750405
O -1.2200160667 1.0345999308 -3.5287732355
C -0.2007838339 0.9524563015 -4.6039120360
C 1.1570778048 0.7539846987 -3.9928685497
C 1.3177399310 0.5068580325 -2.6887842803
H -0.2756640624 1.9231115505 -5.1030943202
H 2.2829868084 0.3340864966 -2.2304362631
H 2.0169536750 0.8018464755 -4.6513847894
C -0.6424215548 -0.1515939260 -5.5921053974
C 0.3400701308 -0.2538652702 -6.7746856390
C -2.0793201634 0.0880624067 -6.0576766969
C -2.4296412631 1.1600051247 -6.7823540541
N -2.9953412286 -0.8674403117 -5.5802645627
H -0.6137143157 -1.0975714909 -5.0342538619
H -0.0245571504 -0.9947007730 -7.4909919627
H 0.4291816728 0.6975253070 -7.3096927980
H 1.3387934128 -0.5665570314 -6.4523066776
H -3.4500995307 1.3169300292 -7.1187041124
H -1.7081254964 1.9200669654 -7.0617756558
H -2.6634011032 -1.8257199347 -5.6473213811
H -3.9085656959 -0.7957004867 -6.0200253862
C -5.0035308422 -1.2663437752 -1.0286367296
C -5.6260076807 -1.5106284669 -2.4131760688
C -5.8721739269 -1.8281433004 0.1002950193
C -7.0713780520 -1.3042291896 0.4122268441
N -5.2638675515 -2.8677565644 0.8089262258
H -4.0309158954 -1.7720270915 -0.9786260476
H -5.8441348761 -2.5758782990 -2.5372305042
H -6.5701568005 -0.9662017890 -2.5199771956
H -4.9498650286 -1.2079439185 -3.2209681201
H -7.6914519564 -1.7260833564 1.1978960139
H -7.4829154617 -0.4530385466 -0.1189330252
H -4.7780003463 -3.5619035353 0.2370525241
H -5.8933050998 -3.3268238946 1.4612517957
