97
# extracted from Terachem optimization
Cr 0.0792801743 -0.1017114840 -0.1151665998
O 0.3845824007 2.0299887018 -0.0525631761
C 1.7195653915 2.3771814555 0.3731565807
S 1.9936224504 4.1362173350 -0.1015695196
C 0.1858806920 4.4025371696 -0.4077452067
C -0.4991861350 3.1560913124 0.1737961430
H -0.6619889617 3.2770876154 1.2501531221
H -1.4426332368 2.9305404552 -0.3230535748
H 0.0472558306 4.4140493176 -1.4952891081
H 1.7779339303 2.2661794219 1.4599471985
O 2.1370873143 0.0490952904 -0.0831710424
C 2.6771957461 1.4003180461 -0.3084060077
C 4.0543124190 1.3338344274 0.2736416805
C 4.3043838374 0.1317598548 0.8106517176
C 3.1224217168 -0.7830447356 0.6103276809
H 2.6952994225 -1.1310271621 1.5564270526
H 3.3327888611 -1.6520287235 -0.0200825394
H 4.7437931694 2.1685341042 0.2265832883
H 2.6667378841 1.5867348472 -1.3872214622
C 5.4991822785 -0.3395050044 1.5328339568
C 6.2014101753 0.4766267368 2.3381560821
N 5.7159809930 -1.7316017233 1.4150024285
H 7.0827090151 0.1285549217 2.8683292916
H 5.8865402267 1.4973348070 2.5208666681
H 5.8709324415 -2.0406408617 0.4574212876
H 6.4901495311 -2.0537507196 1.9892163182
C -0.3997605559 5.6741583716 0.1851968702
C 0.1589779967 6.3827032233 1.1732877378
N -1.6944121033 5.8938770198 -0.3320885731
H -0.3287752051 7.2677209526 1.5706615525
H 1.1038864138 6.0974308506 1.6176358407
H -1.7281522665 5.9448893515 -1.3482291477
H -2.1375041214 6.7222050034 0.0557837565
O -0.2426696053 -2.1725204040 0.0683204525
C -0.1479839114 -2.6462894535 1.4265737838
S -1.1060760191 -4.2188931044 1.4866383352
C -1.0055249331 -4.4080433023 -0.3569275448
C -0.0281992000 -3.3096756296 -0.8078585536
H 1.0063797319 -3.6561508899 -0.7046479985
H -0.2022487287 -2.9770830719 -1.8299553038
H -2.0037933431 -4.1783184956 -0.7480178967
H 0.9064123474 -2.8332879523 1.6637654235
O -0.0591764631 -0.2920226915 1.9353745195
C -0.7057938324 -1.5561605579 2.3348950159
C -0.3662887583 -1.6904306941 3.7854740235
C 0.3794362587 -0.6639219436 4.2132778654
C 0.6017755934 0.3232218061 3.0957791200
H 1.6622497586 0.4661932584 2.8680172892
H 0.1405220983 1.2998209477 3.2680284181
H -0.7186896704 -2.5179687372 4.3898427121
H -1.7805382655 -1.4577821575 2.1502147258
C 0.9720658727 -0.4330725864 5.5427587952
C 1.4742461525 -1.4451186531 6.2713696788
N 1.0936451327 0.9356512364 5.8752360714
H 1.9118098535 -1.2756558165 7.2505700036
H 1.5028250459 -2.4577577627 5.8865712397
H 0.2017140368 1.4246490329 5.9185809644
H 1.5860993071 1.0803619497 6.7523948428
C -0.5705681580 -5.7742744193 -0.8583111579
C 0.0312352938 -6.7092202708 -0.1139168318
N -0.7421209838 -5.8481520149 -2.2580437911
H 0.3362594354 -7.6562439720 -0.5488301108
H 0.2460169697 -6.5554827780 0.9356426603
H -1.6913304815 -5.6483629179 -2.5668771655
H -0.4494591880 -6.7415801420 -2.6440466987
O -2.1532847699 -0.0494470122 -0.4383147899
C -2.4399726799 0.3153270969 -1.7982800225
S -4.1751230853 -0.2067432963 -2.1489843259
C -4.5214906953 -0.4460173627 -0.3453130463
C -3.3294370696 0.2142939121 0.3632146961
H -3.4840617562 1.2966616475 0.4389201445
H -3.1605235430 -0.2020662777 1.3548010706
H -4.4956380039 -1.5254512100 -0.1557737770
H -2.3441219679 1.4030971331 -1.9023496279
O -0.0819660887 -0.0207844134 -2.1650271056
C -1.4128248197 -0.3762800656 -2.6889634844
C -1.3814246250 0.1196229382 -4.1006218243
C -0.2754149960 0.8355598740 -4.3426766870
C 0.6163642177 0.8384967754 -3.1271224582
H 0.7367837247 1.8291620684 -2.6785671133
H 1.6043283409 0.4043519815 -3.2993097805
H -2.1778100123 -0.0902483376 -4.8046518800
H -1.5260670003 -1.4601863463 -2.5891565524
C 0.1065012298 1.5714816098 -5.5609952406
C -0.8087122854 2.2224094378 -6.3006063032
N 1.5026314201 1.6446630039 -5.7657634174
H -0.5306334442 2.7618414466 -7.2010073766
H -1.8487167626 2.2669893596 -5.9994384882
H 1.9487009393 0.7349471081 -5.8634805172
H 1.7490070488 2.2167067768 -6.5687159903
C -5.8419501587 0.1201234785 0.1522806914
C -6.5537047952 1.0614096178 -0.4788863402
N -6.1138235316 -0.3597011827 1.4509342384
H -7.4763957608 1.4440235369 -0.0532111966
H -6.2325222121 1.4823405905 -1.4229363843
H -6.1190847689 -1.3749914215 1.5219864775
H -6.9828371603 0.0047110133 1.8313418237
