151
# extracted from Terachem optimization
Cr -1.0434468032 -1.1885834330 -0.6827336116
O -0.9610243539 1.3408020035 -0.7084402574
C 0.2792542481 1.8309976898 -1.2136712910
S 0.7678851410 3.2565957597 -0.1201178575
C -0.9871679895 3.4875555779 0.2155703198
C -1.6826192154 2.4106088612 -0.1691282860
H -2.7473679737 2.2450526703 -0.1132301882
H 0.1215085318 2.2165477750 -2.2306860894
N 0.9243469900 -0.5402821335 -1.0326904473
C 1.2719093907 0.7006394503 -1.2313021821
N 2.5752292234 0.8979273886 -1.5144680068
C 3.3380629254 -0.3457297349 -1.2485648242
C 2.1497249437 -1.3653007884 -1.1645705887
H 2.2434852513 -2.0454610444 -0.3141088597
H 2.0812092058 -1.9675539033 -2.0774893670
H 3.9692263516 -0.5726482429 -2.1116337924
H 3.0214762635 1.8051495974 -1.4499848130
C 4.1982253133 -0.2581877243 -0.0031382038
C 5.4632820000 -0.8611060886 0.0096626607
C 6.2440733401 -0.8497887220 1.1637095705
C 5.7768503953 -0.2278760387 2.3274250849
C 6.6727737365 -0.2135641662 3.5700565617
O 7.3217635087 -1.4347167584 3.7713621509
O 7.7391541170 0.6776570304 3.4354252061
O 5.8499700295 0.1178240222 4.6638361944
C 4.5253701107 0.3964467118 2.3116482376
C 3.7415131969 0.3763645287 1.1586296393
H 5.8425943419 -1.3443824994 -0.8879525472
H 7.2207229559 -1.3228576367 1.1725907494
H 6.6376697210 -2.0886035908 3.9869835419
H 7.3675567670 1.5544864146 3.2480737118
H 6.4291973795 0.1693736035 5.4448042078
H 4.1614302073 0.8858022698 3.2074515462
H 2.7744380968 0.8739017671 1.1715040875
C -1.5439315492 4.6991518780 0.8293344582
C -1.0537331855 5.9785569964 0.5164605111
C -1.6988632688 7.1141101280 0.9966845292
C -2.8431579329 6.9985650499 1.7970690770
C -3.5371927384 8.2757406731 2.2711596186
O -2.8714887939 8.8870412299 3.3309753290
O -3.5515268457 9.2698109666 1.2962304678
O -4.8621547036 7.9174980984 2.6501822164
C -3.2997429253 5.7268593016 2.1601193244
C -2.6532001271 4.5900674164 1.6848090799
H -0.1926531883 6.0858067715 -0.1371777592
H -1.3366699124 8.1017135236 0.7304551857
H -2.7539943224 8.2252373205 4.0314006447
H -4.0881860643 8.9477350394 0.5534922597
H -5.2705719723 8.7389540483 2.9804506472
H -4.1679070685 5.6223675113 2.8019102075
H -3.0191435397 3.6091477684 1.9727373930
O -1.0308610295 -3.6383461540 -0.0663103099
C -0.7221142617 -3.7930845492 1.3154180080
S 0.9264433202 -4.6504300640 1.3891037433
C 0.5145395822 -5.3922588161 -0.2013236159
C -0.5099638776 -4.7389130224 -0.7668283335
H -1.0052979337 -4.9292426003 -1.7076513220
H -1.4755907632 -4.4477089832 1.7747966470
N -0.8126560655 -1.3144124436 1.3775159987
C -0.6829661749 -2.4565971521 2.0003993064
N -0.4691702803 -2.3653050977 3.3232606703
C -0.6508537818 -0.9616947442 3.7688078210
C -0.5618564059 -0.2497679959 2.3853598142
H 0.4399468856 0.1616798365 2.2176624670
H -1.2826911907 0.5635398571 2.2843439071
H -1.6677260644 -0.8630420118 4.1731039526
H -0.4913170997 -3.1496310490 3.9619621756
C 0.3366516369 -0.5140684080 4.8226865034
C -0.1308979078 0.1212539983 5.9806749459
C 0.7601374679 0.5562455315 6.9583151476
C 2.1369036018 0.3525710200 6.8024081683
C 3.0631348791 0.8662928007 7.9081821789
O 2.9953464633 2.2600261549 8.0243080902
O 2.6521471643 0.4372046799 9.1732888286
O 4.3729301825 0.4390038963 7.6213659983
C 2.6093264615 -0.2866200400 5.6512889500
C 1.7140173638 -0.7123620044 4.6679757158
H -1.1984726135 0.2753550446 6.1218222793
H 0.3958743057 1.0478483923 7.8545516466
H 3.3356302180 2.6275720167 7.1929108136
H 2.7088846489 -0.5321028690 9.1804738434
H 4.9103782692 0.7623584181 8.3669413421
H 3.6735999724 -0.4448901440 5.5196867396
H 2.1000078028 -1.2100229237 3.7814485801
C 1.2822124073 -6.5248943295 -0.7285665332
C 1.8869806895 -7.4553847386 0.1367327699
C 2.5883781538 -8.5413881458 -0.3740119526
C 2.7008294380 -8.7302690768 -1.7572399126
C 3.4845059506 -9.9476442924 -2.2558061334
O 4.8107396688 -9.9217362155 -1.8088861915
O 2.9998185760 -11.1340332799 -1.6975307476
O 3.4067930383 -9.9600811993 -3.6558573212
C 2.1091646358 -7.8049676251 -2.6237634700
C 1.4160551117 -6.7095864957 -2.1154966271
H 1.7851755579 -7.3424536425 1.2123591008
H 3.0482608826 -9.2608095449 0.2956110666
H 5.2391206713 -9.1632484629 -2.2375346152
H 2.0845676534 -11.2432964354 -2.0025964797
H 3.8964560516 -10.7518734436 -3.9421520391
H 2.2021002982 -7.9434876653 -3.6947364358
H 0.9869138475 -5.9841823779 -2.8017281724
O -3.3188544917 -1.1710206441 -0.8220669626
C -3.8619920692 -1.1916926474 -2.1549474371
S -4.6144108998 0.4755290448 -2.4562404587
C -4.7736538264 0.6641320450 -0.6734687740
C -4.0605576509 -0.2706074280 -0.0289342990
H -3.8913299733 -0.3991967480 1.0297132519
H -4.6451248470 -1.9583099066 -2.1963369476
N -1.4982911723 -1.5000436054 -2.6947471282
C -2.7372928819 -1.4782205177 -3.1052061549
N -2.9227168845 -1.6890530006 -4.4153842730
C -1.6373320353 -2.0666852006 -5.0556522351
C -0.6524916266 -1.6981213043 -3.8967308868
H -0.1196648274 -0.7667622265 -4.1175056305
H 0.0876738788 -2.4831478586 -3.7248750608
H -1.6412549287 -3.1528438799 -5.2120448880
H -3.8204467091 -1.8238106339 -4.8615457891
C -1.3795561284 -1.3815727309 -6.3783050996
C -0.9337665309 -2.1375598294 -7.4704446722
C -0.6538214807 -1.5233951390 -8.6879824593
C -0.8274808810 -0.1426460677 -8.8403009808
C -0.4924697631 0.4769286792 -10.2006908398
O 0.8655772548 0.3284835767 -10.5066766208
O -1.1163024169 -0.2045091540 -11.2496504623
O -0.8713964617 1.8268396930 -10.1593349348
C -1.2817776503 0.6145280731 -7.7555933779
C -1.5511887527 -0.0002967942 -6.5323354484
H -0.8065347943 -3.2133555649 -7.3709827446
H -0.3096196753 -2.1087589191 -9.5343975167
H 1.3593946640 0.8642347566 -9.8654083026
H -2.0741977185 -0.0955464051 -11.1336382460
H -0.6559013148 2.1896182137 -11.0372151216
H -1.4300382791 1.6815159408 -7.8770666971
H -1.9140996107 0.6016941402 -5.7019475165
C -5.4976741331 1.8045157316 -0.0984476754
C -5.6883171837 2.9789919172 -0.8504492309
C -6.2697759430 4.1033040972 -0.2752143745
C -6.6849968646 4.0846679373 1.0604311494
C -7.3715215473 5.3306914170 1.6392923524
O -6.8552558921 6.5109627756 1.1209991255
O -8.7204635426 5.3660514833 1.2597215283
O -7.2285134068 5.2644065015 3.0389805287
C -6.5299270199 2.9081202051 1.8051724009
C -5.9461967475 1.7795113456 1.2347201793
H -5.3618936130 3.0258200904 -1.8866714251
H -6.3985483560 5.0130782611 -0.8512144597
H -6.1068878547 6.8055851972 1.6788607128
H -9.1232093177 4.5168932362 1.5053332947
H -7.8109669598 5.9583435239 3.3968554889
H -6.8670990866 2.8826596454 2.8356578486
H -5.8576313607 0.8692597283 1.8216563262
