91
# extracted from Terachem optimization
Cr 0.2650601990 0.1355474928 0.0967137347
N 0.6258603542 2.1822572614 -0.1703134754
C 1.9184243267 2.5130931732 -0.0585446621
N 2.0783053856 3.8360890689 -0.3088062204
C 0.8496902194 4.3739632370 -0.6025068523
C -0.0490927126 3.3313945660 -0.5133180101
H -1.1163603463 3.3387056630 -0.6760718045
H 2.9267189547 4.3909439579 -0.3597234671
N 2.3626333381 0.2540094639 0.3733031873
C 2.9076831687 1.4992315589 0.2467103128
C 4.2704883807 1.7437457013 0.4093126074
C 5.1242722717 0.6881192712 0.7288164203
C 4.5620531692 -0.5882278458 0.8772549989
C 3.1954090014 -0.7560341618 0.6911470416
H 4.6895890314 2.7397941731 0.3184164989
H 2.7274196366 -1.7285153553 0.7970007981
H 5.1696050693 -1.4456509762 1.1510689562
C 6.6127840283 0.9441496690 0.8923439414
O 6.8794363798 2.3114565758 0.9772479859
C 7.3851000456 0.3345918679 -0.2953034730
O 8.1205198947 1.0285654547 -0.9551517998
H 6.9601594548 0.4102267184 1.7960813026
H 7.6016460869 2.4908357597 0.3393647606
H 7.2437241618 -0.7434095145 -0.4973635114
C 0.7528730411 5.8478198177 -0.9053805741
O 2.0507406545 6.3437271322 -1.1026146145
C 0.0775982599 6.6015216470 0.2562316939
O 0.6482587314 7.5214064715 0.7909477679
H 0.1213897581 5.9976053881 -1.7982381478
H 2.1139280796 7.1629214006 -0.5670375991
H -0.9341330618 6.2689782240 0.5545342881
N -0.0170556248 -1.9272734427 0.4131767044
C -0.2002329676 -2.2208830637 1.7072586476
N -0.4842119455 -3.5382695525 1.8436910070
C -0.4949510842 -4.1151409296 0.5971643654
C -0.2025229534 -3.0986704120 -0.2877129942
H -0.1232296133 -3.1375747216 -1.3638279325
H -0.7337311070 -4.0656091977 2.6743429399
N 0.1270360112 0.0455506676 2.2079086184
C -0.1223303872 -1.1903416355 2.7250211791
C -0.2634961989 -1.4183655811 4.0933681175
C -0.1331589907 -0.3515034979 4.9826933893
C 0.1364847016 0.9173525817 4.4513056037
C 0.2567792903 1.0662752986 3.0745427274
H -0.4435675974 -2.4096197498 4.4942529092
H 0.4706882599 2.0322223042 2.6301869110
H 0.2763949251 1.7811860772 5.0943789669
C -0.2865352659 -0.5866711332 6.4750793389
O -0.2166283132 -1.9478446715 6.7757128853
C -1.6278082218 -0.0107751692 6.9729267238
O -2.3932545820 -0.7139757390 7.5867968625
H 0.5047390060 -0.0168712771 6.9970548731
H -0.9679644431 -2.1364021962 7.3759972748
H -1.8370339503 1.0545402947 6.7612590742
C -0.7699705307 -5.5936642030 0.4882885014
O -1.2958506573 -6.0334415722 1.7134955561
C 0.5251931325 -6.3691470433 0.1747404284
O 0.8942164954 -7.2457372019 0.9182230657
H -1.4702358458 -5.7782977226 -0.3441553910
H -0.7929114393 -6.8414088153 1.9516962547
H 1.0741524442 -6.0913566646 -0.7441360901
N -1.8051012577 0.3547383473 -0.1950562764
C -2.1381575839 0.2624089820 -1.4879752438
N -3.4843482173 0.3565378217 -1.6222189869
C -4.0377014027 0.5063251504 -0.3750691414
C -2.9780419758 0.5016403517 0.5080943167
H -2.9892706560 0.5853722394 1.5844795453
H -4.0646187716 0.2794910386 -2.4516403254
N 0.1372012062 -0.0153403375 -2.0077145712
C -1.1288956806 0.0517843044 -2.5091963798
C -1.4014648170 -0.0560127737 -3.8722420208
C -0.3496681729 -0.2325439789 -4.7717931169
C 0.9523944387 -0.2898156846 -4.2563772051
C 1.1449800379 -0.1762386230 -2.8843277075
H -2.4096504971 0.0190907456 -4.2644398205
H 2.1397911380 -0.2027037905 -2.4524934393
H 1.8145929779 -0.3971926437 -4.9078248227
C -0.6391678758 -0.3629537463 -6.2571061073
O -1.9348392575 0.0612495773 -6.5563023094
C -0.4554694540 -1.8276241264 -6.7042178692
O -1.3573653304 -2.4023548625 -7.2647354409
H 0.1151279071 0.2267325079 -6.8100793904
H -2.3343929290 -0.6418784919 -7.1101756113
H 0.5216229394 -2.3056546387 -6.5038298722
C -5.5346701341 0.6545575748 -0.2575262222
O -6.1067621066 0.3613129003 -1.5051438533
C -5.9047285836 2.0894279664 0.1621297144
O -6.6344725674 2.7527826727 -0.5345851077
H -5.9114726988 -0.0226711441 0.5280099563
H -6.7285586286 1.0944687951 -1.6998933792
H -5.4818839730 2.4628473362 1.1134171148
