157
# extracted from Terachem optimization
Cr -0.0384959850 0.0384037673 -0.0270069072
O 0.2692416667 2.1914114702 0.0418528540
C 1.6273164503 2.6366969649 -0.1758646738
S 2.1443653668 3.4025608376 1.3902884351
C 0.5261071486 4.3038429668 1.3257222050
C -0.4639410107 3.2518655104 0.7680314199
H -0.9701434269 2.7612166959 1.5936222572
H -1.1840408786 3.6793263119 0.0691030176
H 0.6554743122 5.1007342242 0.5884453723
H 1.5959605036 3.4060203193 -0.9580332059
O 2.0854774219 0.2782152861 -0.0509050803
C 2.5541073630 1.5055601132 -0.6365679605
N 3.8971893530 1.7909506858 -0.1814191989
C 4.9413240714 0.7763870485 -0.4216594278
C 4.3974850857 -0.5116243289 0.2253514870
C 2.9884435368 -0.8570079817 -0.2279887179
H 5.7848441755 1.1033433640 0.1945402819
H 4.1840372409 2.7229708978 -0.4628639258
H 2.4811678380 1.3928879798 -1.7236300691
H 2.5709349000 -1.6572038573 0.3816881448
H 2.9590911390 -1.1537689771 -1.2791787598
H 5.0360444462 -1.3752877210 0.0319193668
H 4.3760057664 -0.3437324319 1.3072926147
C 5.4994910994 0.7190244503 -1.8938137619
N 4.4452746665 0.3156789965 -2.8502588568
C 5.9305485136 2.1494146028 -2.2961635275
C 6.7844551932 -0.1715574926 -2.0315336269
C 7.8897498987 0.0192709307 -0.9981888432
Cl 6.3811418402 -1.9821947227 -2.1133754774
H 4.7050253802 0.6342325099 -3.7848370668
H 4.4242370350 -0.7020286680 -2.9151346040
H 6.5670181433 2.6225506440 -1.5428560312
H 6.4846289635 2.1416018107 -3.2414998762
H 5.0477949885 2.7779058909 -2.4487663459
H 7.1868606360 0.0100904807 -3.0310576962
H 7.5815709533 -0.2945104806 0.0029227934
H 8.7691360379 -0.5664687483 -1.2768498658
H 8.1898976465 1.0721953170 -0.9569337922
C 0.1321749806 4.9631811093 2.7035896278
N -0.6112928116 3.9930197089 3.5247987137
C 1.3957758456 5.3681778568 3.4952396650
C -0.6874455176 6.2757508451 2.4879347552
C -0.0199068041 7.4333967580 1.7550182459
Cl -2.2763017469 5.9015915198 1.6215914032
H -0.4478627264 4.1678830747 4.5142160957
H -1.6146188902 4.0938335787 3.3747385519
H 2.1106331542 5.9224695221 2.8835298046
H 1.1242246117 5.9949316911 4.3524607321
H 1.8958391780 4.4755382149 3.8833723614
H -1.0133911493 6.6072009496 3.4771196161
H 0.2588501975 7.1743383775 0.7293726437
H -0.7037284832 8.2844759291 1.7083366599
H 0.8782903660 7.7581331956 2.2898171656
O -0.2278871230 -2.0928910914 0.0292006879
C -0.6198000650 -2.6535266404 1.3014575944
S 0.7421464462 -3.7631120655 1.7753774801
C 0.6812053814 -4.3950063064 0.0346836999
C 0.3961732063 -3.1367598404 -0.8120474928
H 1.3204514933 -2.7125897035 -1.1930483608
H -0.2862297920 -3.3447267178 -1.6385977141
H -0.1742544482 -5.0749157190 -0.0230620888
H -1.5419864956 -3.2291706694 1.1501350041
O 0.0270657776 -0.4532244669 2.0003923071
C -0.8706135091 -1.5414045529 2.3310398250
N -0.5672661213 -2.0724457372 3.6381465227
C -0.5739197355 -1.1575872578 4.7924590784
C 0.4236066420 -0.0466145367 4.4127081514
C 0.1474191309 0.5683019553 3.0507951597
H -0.1100797826 -1.7322621289 5.6004504142
H -1.0897496056 -2.9257925469 3.8071721743
H -1.8855662234 -1.1436024449 2.2318548338
H 0.9693336492 1.2031087023 2.7235622370
H -0.7711487135 1.1545482292 3.0519449575
H 0.4303803289 0.7617642940 5.1461202885
H 1.4207573192 -0.4996210204 4.4003263019
C -2.0043604880 -0.7665610907 5.3199438319
N -2.7486248623 -0.0081994019 4.2939985839
C -2.8001071831 -2.0718642051 5.5630993995
C -1.9766357178 -0.0269171723 6.7044992700
C -1.1097019228 -0.6264745548 7.8069486701
Cl -1.5283742594 1.7657286072 6.5411313259
H -3.7493632031 -0.0566184734 4.4890176284
H -2.5143772879 0.9817236453 4.3650574706
H -2.2368377150 -2.8024070483 6.1509702542
H -3.7341583033 -1.8649824641 6.0966815594
H -3.0732755146 -2.5315676156 4.6083026218
H -3.0127664216 0.0349925151 7.0456117338
H -0.0445569708 -0.5861060851 7.5627712055
H -1.2600713962 -0.0795857333 8.7408451534
H -1.3890842701 -1.6708945611 7.9851584341
C 1.9752845638 -5.1979670726 -0.3413385401
N 3.1186871944 -4.2800408159 -0.4485891771
C 2.2758940693 -6.2171838291 0.7828292889
C 1.7909783469 -6.0365990226 -1.6469556001
C 0.6062718503 -6.9912775902 -1.7215952190
Cl 1.7465361123 -4.9477336522 -3.1478406884
H 3.9451951628 -4.6757521838 -0.0085881453
H 3.3562693640 -4.0935715914 -1.4200961914
H 1.3922276921 -6.7893954007 1.0754510683
H 3.0509575142 -6.9207526484 0.4608150938
H 2.6467453074 -5.6972992780 1.6721150731
H 2.7215635930 -6.5901523045 -1.7905145359
H -0.3523536682 -6.4643006719 -1.7110902891
H 0.6564555327 -7.5776695483 -2.6423100753
H 0.6304816250 -7.6905048703 -0.8795208205
O -2.1309275907 0.0904870831 -0.2116478229
C -2.6457258683 -0.2019130425 -1.5370226681
S -3.5963502720 1.2706316988 -2.0231740692
C -4.3347175571 1.1788491963 -0.3277159797
C -3.1086572826 0.9000593359 0.5541435151
H -2.6094913811 1.8328490221 0.7966612272
H -3.3375803849 0.3406030445 1.4614405222
H -5.0094026998 0.3163598064 -0.3147574105
H -3.3284682406 -1.0545458671 -1.4328369529
O -0.2718026706 0.0056000900 -2.1756018021
C -1.5458198864 -0.6033896802 -2.5359392515
N -1.9500975546 -0.1544188115 -3.8472062310
C -1.0600599902 -0.4283267401 -4.9881234885
C 0.3131891668 0.1264806995 -4.5618935573
C 0.7377580436 -0.3395531638 -3.1784798069
H -1.4209435817 0.2283686556 -5.7863647417
H -2.9163699893 -0.4004360398 -4.0349457891
H -1.3763517573 -1.6833006414 -2.4798705136
H 1.6576308701 0.1527587815 -2.8703091831
H 0.8908482587 -1.4218473067 -3.1366280430
H 1.0990451597 -0.1387904406 -5.2705490743
H 0.2302212158 1.2187211047 -4.5399219937
C -1.1624555777 -1.8875796265 -5.5764385069
N -0.8784190695 -2.8988891544 -4.5402884449
C -2.6292174461 -2.1141574274 -6.0144681898
C -0.2921799506 -2.0937519565 -6.8654013827
C -0.3657553488 -1.0164940082 -7.9430411065
Cl 1.4944433187 -2.3904993964 -6.4634116615
H -1.2755633632 -3.7940986330 -4.8278217564
H 0.1252175241 -3.0659910253 -4.4834119334
H -3.0022280546 -1.3128211463 -6.6580600628
H -2.7302583554 -3.0568049655 -6.5638676737
H -3.2794782479 -2.1867745135 -5.1370835284
H -0.5849467996 -3.0553042871 -7.2941886604
H 0.0450818507 -0.0607222160 -7.6060706352
H 0.1962062780 -1.3297492629 -8.8263607489
H -1.4057994899 -0.8590527431 -8.2493554927
C -5.1554150312 2.4645606325 0.0179489314
N -4.2434022291 3.6071903080 0.1101638002
C -6.1563975422 2.7411997215 -1.1284290177
C -6.0149328242 2.2909996386 1.3129595961
C -6.9628784016 1.1006790680 1.3845702006
Cl -4.9493482485 2.2660915157 2.8329240608
H -4.6689754153 4.4478854935 -0.2719952740
H -3.9927659915 3.8110675820 1.0741581213
H -6.7116115466 1.8475275990 -1.4236100495
H -6.8761051684 3.5101317042 -0.8279759190
H -5.6219123842 3.1106371653 -2.0091064379
H -6.5747284165 3.2203635646 1.4382758568
H -6.4288586743 0.1457189725 1.3829809181
H -7.5602211776 1.1500703012 2.2983159969
H -7.6529803126 1.1168694859 0.5347382758
