175
# extracted from Terachem optimization
Cr 0.4337031982 -0.0374593316 -0.0873959274
N 0.7256938974 2.0604591275 0.1233921089
C 2.0161981587 2.3362065977 0.3144592636
N 2.2083017278 3.6773539301 0.4188395360
C 0.9823686456 4.3024869527 0.2981533064
C 0.0752886214 3.2640376011 0.1071167135
H -0.9897293889 3.3330433724 -0.0550466780
H 3.0929103235 4.1269048275 0.6185252395
N 2.5104353508 0.0635111115 0.2265332063
C 2.9827373006 1.2653254303 0.3850350168
O 4.2364149901 1.6470388640 0.6375050840
C 5.2427872535 0.5941604914 0.9160953439
C 4.8937745446 -0.6391141664 0.0833016981
C 3.4459220206 -1.0658468033 0.3366341412
H 5.1329995217 0.3642381466 1.9822328124
H 5.0448767702 -0.4139076080 -0.9787018198
H 5.5819711206 -1.4498034623 0.3418853736
H 3.3363561061 -1.5063346587 1.3371313510
H 3.1338787261 -1.8360567183 -0.3751122545
C 6.6029688146 1.1810375246 0.6607594826
C 6.9513952838 1.6887591917 -0.5993487566
C 8.2253787185 2.1980714146 -0.8277585880
C 9.1982076449 2.2108602143 0.1870008165
C 10.5974807711 2.7563848276 -0.0598881559
C 11.3460241702 1.9413884894 -1.1321129657
C 10.5704631862 4.2547746161 -0.4182796215
C 8.8382318760 1.7033468902 1.4410963680
C 7.5584146731 1.2014747194 1.6801827574
H 6.2203962734 1.6967975298 -1.4046558973
H 8.4687209495 2.5890651211 -1.8117392654
H 11.1520815931 2.6508739237 0.8814949069
H 10.8619948494 2.0278222910 -2.1121321079
H 12.3730364523 2.3073374743 -1.2374048568
H 11.3891861460 0.8790234728 -0.8694284157
H 10.0704452731 4.8431138932 0.3586994580
H 11.5907065539 4.6372390969 -0.5303231773
H 10.0451313872 4.4292389468 -1.3646543574
H 9.5681118661 1.7050656001 2.2465273276
H 7.3082675427 0.8198862882 2.6678168080
C 0.8019102319 5.7497064132 0.3670827885
C 1.8451540035 6.6354986841 0.0424398132
C 1.6562967369 8.0105566926 0.1185845436
C 0.4245799616 8.5574314284 0.5150857306
C 0.2109464980 10.0610722984 0.5954095429
C 1.1897033679 10.7303154365 1.5793700028
C 0.2864777742 10.7158261429 -0.7980540812
C -0.6120861649 7.6666225855 0.8296293807
C -0.4335685050 6.2886995978 0.7613403595
H 2.8040059303 6.2539460741 -0.3019140833
H 2.4788460122 8.6697468436 -0.1430026733
H -0.8046118604 10.2196140205 0.9812078738
H 2.2272506291 10.6469814678 1.2352345964
H 0.9590068754 11.7967831381 1.6729222130
H 1.1271329488 10.2803479537 2.5758893340
H -0.4370010507 10.2707186150 -1.4895421104
H 0.0717244215 11.7873604290 -0.7250358227
H 1.2849076026 10.6067657496 -1.2377847125
H -1.5745676322 8.0615334779 1.1442287842
H -1.2496643729 5.6274583651 1.0398493437
N 0.1378967156 -2.1012795717 0.0304529811
C -0.0548531398 -2.5042308385 1.2870189063
N -0.3058889194 -3.8379736734 1.3264054551
C -0.2661000391 -4.3287671446 0.0360401143
C 0.0070992573 -3.2160291087 -0.7533590987
H 0.0900662733 -3.1647829673 -1.8280431008
H -0.4405273053 -4.3781792521 2.1714208182
N 0.1756612126 -0.3105039797 2.0500117106
C -0.0279855598 -1.5509486254 2.3731299378
O -0.2082749400 -2.0875696956 3.5832085849
C -0.0387887576 -1.2122681571 4.7648467802
C -0.5122973625 0.1914804994 4.3912840082
C 0.2042985626 0.6842711791 3.1297554317
H 1.0390978043 -1.1972084642 4.9649588980
H -1.5974785558 0.1752344710 4.2344034933
H -0.3194232482 0.8677740524 5.2298846113
H 1.2529772433 0.9286196249 3.3496116186
H -0.2574935844 1.6034219906 2.7579791712
C -0.7576782379 -1.8545970452 5.9187467899
C -2.1163338702 -2.1908428222 5.8347749896
C -2.7699279462 -2.7639024458 6.9210261357
C -2.0965455105 -3.0095252962 8.1302151520
C -2.8006272760 -3.6506265448 9.3172602019
C -4.0219700166 -2.8350380139 9.7824024522
C -3.1922168490 -5.1107721254 9.0144822648
C -0.7418571688 -2.6642294002 8.2035965501
C -0.0766906810 -2.1028778390 7.1133048281
H -2.6612370406 -2.0198398611 4.9092291475
H -3.8206611321 -3.0242137752 6.8285682208
H -2.0808181502 -3.6670462574 10.1458893582
H -4.8067093198 -2.8134377716 9.0169815357
H -4.4530739898 -3.2845247262 10.6832240972
H -3.7484931312 -1.8006192522 10.0164161189
H -2.3191978240 -5.7078214935 8.7294700280
H -3.6472082449 -5.5737504530 9.8967927016
H -3.9206159117 -5.1652619931 8.1966193282
H -0.1946158381 -2.8453981342 9.1250749816
H 0.9797789216 -1.8574653280 7.1987959304
C -0.4829045368 -5.7316390313 -0.3051891752
C -1.2146922677 -6.5875735129 0.5373982801
C -1.4087891155 -7.9211568437 0.1970300440
C -0.8903850642 -8.4534963721 -0.9952016901
C -1.0928560435 -9.9140088090 -1.3678933987
C -0.3894996883 -10.8537456993 -0.3684019750
C -2.5858328618 -10.2690276143 -1.5089065103
C -0.1677620290 -7.5910371068 -1.8324305993
C 0.0392137193 -6.2564856851 -1.4986640924
H -1.6643200984 -6.2074836215 1.4521561999
H -1.9816319144 -8.5560807633 0.8664077411
H -0.6223803947 -10.0624796099 -2.3485753765
H -0.8357984593 -10.7821961948 0.6305116375
H -0.4818822786 -11.8940559559 -0.6982524290
H 0.6765130724 -10.6187477678 -0.2797679423
H -3.0832137420 -9.6281176614 -2.2447846808
H -2.6970176562 -11.3090182832 -1.8335242654
H -3.1142915674 -10.1620699103 -0.5546420207
H 0.2509646031 -7.9774191652 -2.7579920666
H 0.6295670567 -5.6247539948 -2.1568774056
N -1.6709887501 0.1617160564 -0.3674791455
C -1.9470642864 0.3621013719 -1.6556622781
N -3.2880984149 0.4549704761 -1.8486314464
C -3.9137192710 0.3168254114 -0.6249133599
C -2.8747863603 0.1282334454 0.2807054654
H -2.9438312179 -0.0480316689 1.3430942797
H -3.7380451888 0.6557503058 -2.7328155888
N 0.3249648622 0.2931365347 -2.1674258629
C -0.8802319862 0.4513434578 -2.6262079125
O -1.2746190903 0.7210555055 -3.8727384447
C -0.2346134070 1.0326687407 -4.8806308837
C 1.0104097631 0.2064688979 -4.5584488833
C 1.4448971207 0.4340427882 -3.1082219819
H -0.0158675090 2.0989092713 -4.7515013713
H 0.7953694568 -0.8545113641 -4.7302199316
H 1.8131240965 0.4884832846 -5.2468589013
H 1.8752731151 1.4368522802 -2.9809896757
H 2.2235263440 -0.2786117987 -2.8193936107
C -0.8295172864 0.7952966790 -6.2408006574
C -1.3378595552 -0.4608942908 -6.6019303780
C -1.8557567450 -0.6734205930 -7.8752458089
C -1.8766562005 0.3539138883 -8.8345743049
C -2.4323818332 0.1250258698 -10.2329194683
C -1.6216679451 -0.9358964429 -11.0018799215
C -3.9300461796 -0.2356446455 -10.1995178608
C -1.3681560744 1.6038766197 -8.4618556751
C -0.8577401393 1.8271610457 -7.1825054887
H -1.3405888100 -1.2750210089 -5.8807238347
H -2.2477650857 -1.6545899916 -8.1282830712
H -2.3321563168 1.0739879556 -10.7754353349
H -1.7019465564 -1.9220411050 -10.5292959698
H -1.9958845577 -1.0291475586 -12.0270853169
H -0.5602132369 -0.6704311208 -11.0504140886
H -4.5151972686 0.5329577211 -9.6830824609
H -4.3207516401 -0.3326645487 -11.2182169786
H -4.0992635474 -1.1900268165 -9.6871081711
H -1.3765781087 2.4188413408 -9.1810714737
H -0.4766003858 2.8122110107 -6.9217594296
C -5.3620825595 0.3710164094 -0.4463554968
C -6.2421319968 0.0238790955 -1.4870226340
C -7.6183684491 0.0872189077 -1.3012208722
C -8.1717455492 0.4923015458 -0.0753108113
C -9.6766328618 0.5606159421 0.1342230040
C -10.3516897911 1.5319910269 -0.8531259498
C -10.3199842886 -0.8384946137 0.0668734857
C -7.2864441100 0.8287749806 0.9590839862
C -5.9074204547 0.7738727749 0.7833276259
H -5.8541371915 -0.3284172525 -2.4402959316
H -8.2732795998 -0.1912364161 -2.1216651318
H -9.8410716334 0.9524118008 1.1466045939
H -10.2626305195 1.1810818876 -1.8879242002
H -11.4195115095 1.6184215752 -0.6258453250
H -9.9100080347 2.5325901683 -0.7966787643
H -9.8701984272 -1.5218108789 0.7952231881
H -11.3923774255 -0.7727378747 0.2797462046
H -10.2060904056 -1.2836945471 -0.9285634658
H -7.6866756765 1.1509380441 1.9169116553
H -5.2501269601 1.0707753881 1.5962244760
