103
# extracted from Terachem optimization
Cr -0.3265587808 -0.3208881705 0.3924637510
N -0.6332444841 1.8224457516 0.0276135951
C -0.8295328740 2.3485388015 -1.1323931454
S -1.1232494157 4.0662080358 -1.2536228424
C -0.7055780219 4.2662454890 0.5461683198
C -0.7465560241 2.8253399094 1.1121427098
H 0.0472504529 2.6910422706 1.8503166877
H -1.7003035283 2.6461107298 1.6239480415
H -0.8473791532 1.7863016819 -2.0689556241
H -1.4981213123 4.8716435878 0.9924945661
C 0.6413655163 5.0109320858 0.7533199046
N 0.6486505518 6.4126416232 0.3703596087
N 1.7302249814 4.2678725038 0.1176626914
H 0.8201368036 4.9777641704 1.8365582247
H 0.4024101917 6.5459808172 -0.6097745689
H 0.0186369630 6.9776042411 0.9364731231
H 1.6446244392 4.3737158501 -0.8953525975
H 2.5997888807 4.7455629513 0.3580052566
N 2.2459647782 -0.0554219858 0.3663850497
C 2.7742489372 1.1000804832 0.1951672996
S 4.5310722653 1.2341036936 0.0949145779
C 4.6497145236 -0.6207812470 0.0194799386
C 3.2725261030 -1.1019409760 0.5374685538
H 2.9714596064 -2.0293638609 0.0410509686
H 3.3317984686 -1.3251478406 1.6120794456
H 2.1987072483 2.0273508847 0.1308565305
H 5.4437841890 -0.9212359692 0.7072173424
C 5.0197842259 -1.1319037322 -1.3977688150
N 6.3611969833 -0.8111318665 -1.8586831382
N 4.0044290124 -0.7091143678 -2.3679110443
H 4.9640045803 -2.2270695029 -1.3324525698
H 6.5445876049 0.1913948022 -1.8257135538
H 7.0807884907 -1.2788858579 -1.3105853829
H 4.0892214539 0.3026148196 -2.4894946733
H 4.2793120260 -1.1025085435 -3.2692393048
N -0.0773855848 -2.5110650903 0.7893713985
C -0.0900846321 -3.0824376198 1.9418489888
S 0.0390190724 -4.8132547368 2.0716883959
C 0.2742355045 -4.9376695918 0.2275181362
C 0.0617948666 -3.4943976519 -0.3083866981
H 0.9202193989 -3.2098275780 -0.9202179439
H -0.8370773120 -3.4362179883 -0.9296233968
H -0.2018619545 -2.5152955122 2.8607053888
H -0.5080969475 -5.6082431893 -0.1359338912
C 1.6508278205 -5.5491071788 -0.1514147815
N 1.8599605003 -6.9303525725 0.2456258010
N 2.7214136944 -4.6679807214 0.3056951930
H 1.6713710615 -5.5362391310 -1.2501524772
H 1.7774066504 -7.0672743428 1.2519875697
H 1.2313351830 -7.5797790550 -0.2226274278
H 2.7860261676 -4.7264363407 1.3237407394
H 3.6000901824 -5.0547597189 -0.0394847990
N -3.0460038162 -0.4691918687 0.4763887354
C -3.6978144039 -1.5637235994 0.6090611961
S -5.4438395714 -1.5883855841 0.4266279137
C -5.4068878287 0.2071428712 -0.0701271295
C -3.9411378511 0.6659944955 0.1875796787
H -3.5613992190 1.2017842589 -0.6870711134
H -3.8948918029 1.3559263410 1.0396109836
H -3.1929539051 -2.4973332054 0.8513754848
H -6.0960500444 0.7271716427 0.5992644291
C -5.8969163760 0.4297021842 -1.5259426039
N -7.2973088397 0.1268561153 -1.7719643793
N -5.0147348425 -0.2628340622 -2.4653215103
H -5.7764248145 1.5070435731 -1.7060048092
H -7.5326504166 -0.8349059554 -1.5292636025
H -7.9272837122 0.7459683336 -1.2653470048
H -5.1413760093 -1.2694473800 -2.3409231748
H -5.3727336170 -0.0649665422 -3.4004734164
N -0.3153293113 0.0267215393 2.5205772337
C -1.3639074371 0.0177805247 3.2663976391
S -1.2086154653 0.2274384419 4.9851491786
C 0.6275564031 0.5068278217 4.7915818869
C 0.9299043174 0.2310007103 3.2917826703
H 1.4733543522 1.0729503819 2.8585261764
H 1.5516539835 -0.6612587893 3.1640762869
H -2.3454713017 -0.1490350554 2.8314073442
H 1.1166676611 -0.2324471902 5.4305018507
C 1.0532638934 1.9187731823 5.2800491446
N 0.8743364879 2.1721580062 6.6986140120
N 0.4226496525 2.9402600835 4.4482023618
H 2.1341751380 1.9701215203 5.0880149957
H -0.0950429707 2.0778184656 6.9974419731
H 1.4567347493 1.5814537633 7.2883646104
H -0.5741185922 2.9744945857 4.6704737994
H 0.7928829863 3.8422702602 4.7489894643
N -0.3275444750 -0.7040059106 -1.7211837913
C 0.7295297448 -0.8631563829 -2.4417187413
S 0.5452641015 -1.3011715834 -4.1215339220
C -1.2920591631 -1.0248321699 -3.9984633642
C -1.5704390449 -0.9820310254 -2.4765790163
H -2.3359591974 -0.2388366538 -2.2457579624
H -1.9549313573 -1.9469735439 -2.1270866990
H 1.7503165289 -0.7590264332 -2.0650914783
H -1.7761595073 -1.8937790787 -4.4501141623
C -1.7544443123 0.2396302570 -4.7707052497
N -1.6789945428 0.1603634100 -6.2189584591
N -1.0609384126 1.4216816139 -4.2549657321
H -2.8151902441 0.3517877096 -4.5100101471
H -0.7372679807 -0.0490847946 -6.5479741663
H -2.3143687337 -0.5323896075 -6.6096129739
H -0.0874691462 1.3870553991 -4.5647937651
H -1.4585047849 2.2337149262 -4.7288781535
