160
# extracted from Terachem optimization
Cr 0.2333538958 0.1089919759 0.1974778952
N 0.5726843166 2.1719701038 -0.0414084845
C 1.8518716733 2.4700081685 0.0544249815
O 2.0996635159 3.7741141449 -0.1471298789
C 0.8712478685 4.3677775521 -0.3868983418
C -0.0659946957 3.3647939099 -0.3237485084
H -1.1352161454 3.4254031659 -0.4501117770
N 2.3128649527 0.2257927679 0.4591204102
C 2.8566651272 1.4726572026 0.3296457689
C 4.2178959506 1.7316795189 0.4547693534
C 5.1096060106 0.6818578117 0.7391515157
C 4.5332211504 -0.5992841480 0.8833452927
C 3.1666069624 -0.7784936091 0.7406920372
H 4.5770895769 2.7435445846 0.3064153496
H 2.7131983742 -1.7571298009 0.8551502488
H 5.1495443788 -1.4539701661 1.1371830286
C 6.5569721739 0.9076816227 0.8837466031
C 7.4817792202 -0.1080422028 0.5840599835
C 8.8494623068 0.1059651026 0.7228524354
C 9.3509031931 1.3358457193 1.1758617845
C 10.8455672715 1.5820897763 1.3952037892
C 11.7574333267 0.7082962500 0.5153749283
N 11.1268897716 3.0213475262 1.2860917197
C 8.4262503457 2.3497621013 1.4760372176
C 7.0600994264 2.1440417305 1.3306535646
H 7.1374685522 -1.0650281043 0.2021888533
H 9.5275220489 -0.7004606241 0.4661883886
H 11.0473736501 1.3205552942 2.4449878467
H 11.5623322918 0.8831445831 -0.5498297861
H 12.8043687512 0.9598227229 0.7141673385
H 11.6409879005 -0.3627042516 0.7132162735
H 12.0572145417 3.2133311738 1.6533131817
H 11.1472674478 3.2931683400 0.3026427342
H 8.8071742616 3.3021634527 1.8274034332
H 6.3766340925 2.9425942320 1.6062104495
C 0.8256097507 5.7967366440 -0.6221169111
C -0.4015376484 6.4273780709 -0.8962432357
C -0.4578774898 7.7983100925 -1.1115079392
C 0.7011660290 8.5894001895 -1.0670292424
C 0.6158539303 10.1047148382 -1.2678709092
C 1.7913852620 10.6735034199 -2.0869297394
N -0.6995780530 10.4698426751 -1.8112359328
C 1.9221987356 7.9529288393 -0.7911477381
C 1.9905328358 6.5822357097 -0.5710504599
H -1.3185480802 5.8455412773 -0.9395587809
H -1.4040353173 8.2883498025 -1.3103423341
H 0.6590694082 10.5516133458 -0.2635615039
H 1.8174187854 10.2292386543 -3.0893909289
H 1.6695271975 11.7562225858 -2.1967824926
H 2.7648408082 10.5027561646 -1.6154911192
H -0.8501262716 11.4693158532 -1.6891593702
H -0.7139431075 10.3035761947 -2.8182940901
H 2.8390229164 8.5306383639 -0.7388697901
H 2.9485283814 6.1196953749 -0.3576365655
N -0.0529325343 -1.9548327753 0.5035099974
C -0.2584056776 -2.2317580352 1.7747120376
O -0.5252618554 -3.5302488903 1.9876982456
C -0.4816869684 -4.1427902987 0.7455283778
C -0.1946219452 -3.1561835270 -0.1660954917
H -0.0861352938 -3.2305473625 -1.2363860176
N 0.0408261687 0.0165490655 2.2989152724
C -0.2243185824 -1.2222046218 2.8062973799
C -0.4313288597 -1.4662449982 4.1604859532
C -0.3636383318 -0.4061509237 5.0826243970
C -0.0860252549 0.8686803757 4.5444932809
C 0.1072154098 1.0306490032 3.1809660046
H -0.6641804340 -2.4734392167 4.4866673750
H 0.3321916429 2.0043381879 2.7587193204
H 0.0143127795 1.7302658463 5.1944608417
C -0.5615309920 -0.6159794019 6.5264837107
C -1.0883198861 0.4034705480 7.3400555405
C -1.2656823138 0.2072570332 8.7047715262
C -0.9132745920 -1.0059112986 9.3181549326
C -1.0500826075 -1.2108849055 10.8286636357
C -2.3150290895 -0.5580429137 11.4197490468
N -0.9264255416 -2.6376254496 11.1583317064
C -0.3816770738 -2.0197974855 8.5069099216
C -0.2152836663 -1.8338173311 7.1388719725
H -1.3975479572 1.3474619697 6.9002136018
H -1.6836484954 1.0163023461 9.2943372651
H -0.1765308783 -0.7226152570 11.2854827423
H -3.2198795319 -0.9837252198 10.9690032909
H -2.3517834319 -0.7444720001 12.4981832971
H -2.3439947207 0.5273950127 11.2780285763
H -0.7495068278 -2.7401153021 12.1556703210
H -1.8127093392 -3.1109800999 10.9786268649
H -0.0874134540 -2.9507443643 8.9781856391
H 0.2307841613 -2.6314410788 6.5507855743
C -0.7142465824 -5.5704881111 0.6657785605
C -0.5646551543 -6.2398836793 -0.5620551562
C -0.7753402308 -7.6099874073 -0.6495225698
C -1.1491610894 -8.3605160053 0.4756426656
C -1.3455757119 -9.8747618860 0.3794576246
C -2.6354908534 -10.3513677292 1.0777256784
N -1.2476477155 -10.3158709682 -1.0180932307
C -1.2943420527 -7.6854880588 1.6991761598
C -1.0805494202 -6.3163138118 1.8005515268
H -0.2678701890 -5.6913674262 -1.4522916929
H -0.6331553226 -8.1296910203 -1.5899765384
H -0.4915491573 -10.3308556300 0.9005840678
H -3.5186983387 -9.9068478442 0.6029910649
H -2.7153466670 -11.4404534811 0.9957802083
H -2.6628949258 -10.0993831332 2.1429597906
H -1.0619656806 -11.3162044562 -1.0474076932
H -2.1442702663 -10.1819987777 -1.4868920254
H -1.5701373740 -8.2353337809 2.5936687015
H -1.1969539564 -5.8225143981 2.7598275438
N -1.8556943042 0.3020256862 -0.1060530431
C -2.1463994807 0.2046493302 -1.3857436559
O -3.4663534080 0.2725444666 -1.6248295319
C -4.0757022037 0.4331536928 -0.3916365397
C -3.0672540878 0.4454403209 0.5416532218
H -3.1328244449 0.5485833260 1.6130773688
N 0.1194311268 -0.0262782880 -1.9032943776
C -1.1465201302 0.0102344175 -2.4109967978
C -1.4300168292 -0.1286396899 -3.7659917858
C -0.3833244106 -0.3191983544 -4.6863547099
C 0.9205503972 -0.3460979866 -4.1487711358
C 1.1222775573 -0.1946760850 -2.7848136175
H -2.4634466436 -0.1190337553 -4.0933194457
H 2.1208391335 -0.1976776998 -2.3603783530
H 1.7806003134 -0.4543609341 -4.7997441835
C -0.6342315691 -0.4832213353 -6.1277234367
C 0.2040043960 -1.2883019955 -6.9182511853
C -0.0367591831 -1.4523023947 -8.2787641064
C -1.1037378689 -0.7974318164 -8.9077970025
C -1.3653427975 -0.9596900324 -10.4052164101
C -1.4393674588 0.4056419523 -11.1221498026
N -0.3888824279 -1.8763115994 -11.0056198108
C -1.9428157694 0.0052167052 -8.1172311223
C -1.7223483462 0.1537154318 -6.7535615175
H 1.0286348508 -1.8276667366 -6.4599288262
H 0.5848384282 -2.1143518761 -8.8706637975
H -2.3449542264 -1.4478538476 -10.5034013812
H -0.4787273288 0.9292499284 -11.0454702746
H -1.6629350986 0.2554253569 -12.1837669883
H -2.2128449998 1.0625232045 -10.7098283367
H -0.7453305241 -2.2182952583 -11.8954904249
H 0.4710053672 -1.3716718777 -11.2234562369
H -2.7844169727 0.5199097853 -8.5719259015
H -2.3784146327 0.8011510677 -6.1781966560
C -5.5185807340 0.5541431232 -0.3403386849
C -6.1705001987 0.6936245329 0.8981522205
C -7.5526260061 0.8173829554 0.9584669814
C -8.3354919661 0.8007932657 -0.2065180253
C -9.8548181464 0.9694157793 -0.1281910936
C -10.6126786208 0.0267332635 -1.0843319342
N -10.3058031975 0.8670356652 1.2661471852
C -7.6769474414 0.6655054617 -1.4398408525
C -6.2944459891 0.5443710475 -1.5129766623
H -5.5961411753 0.7084410691 1.8207674131
H -8.0541700052 0.9404523685 1.9113764447
H -10.0678849876 2.0036193284 -0.4362218455
H -10.4011354267 -1.0222014900 -0.8438235283
H -11.6905258903 0.1901558557 -0.9805473634
H -10.3585571469 0.1899694641 -2.1368885365
H -11.2441400484 1.2533572784 1.3473628043
H -10.3810371908 -0.1151833753 1.5335467400
H -8.2462001942 0.6598402098 -2.3636897383
H -5.8141257515 0.4432307971 -2.4806781580
