136
# extracted from Terachem optimization
Cr 0.0342716135 -0.0933690060 0.1062641525
O 0.2284212778 1.9262858958 -0.0797846541
C 1.5776821351 2.3076759453 -0.4788540163
N 1.7433276816 3.6250624027 0.0838949786
C 0.4596767118 4.1383612965 0.3560817831
C -0.4495297243 3.1594403796 0.3157626581
H -1.4996990003 3.0559428756 0.5284545315
H 2.3547183815 4.2790774346 -0.3981746669
H 1.6227917005 2.2979651494 -1.5818690990
N 2.0466954346 0.0682534676 0.2980454651
C 2.5410533234 1.2487872847 0.0564471641
S 4.1636957561 1.7987430602 0.2003245628
C 5.1590477552 0.2256466321 0.4404177897
C 4.3100597710 -1.0097691320 0.1471146743
C 2.9317126363 -0.9981192931 0.8107554510
H 5.4638671414 0.2278399280 1.4880834216
H 4.2076963269 -1.1481043778 -0.9338052340
H 4.8552906530 -1.8714437159 0.5456674473
H 3.0231997090 -0.8664195708 1.8973378153
H 2.4284167828 -1.9497633982 0.6325339945
C 6.4396183042 0.3324587284 -0.4290945456
O 5.9808232631 0.3388444442 -1.7830707075
C 7.2357540010 1.6079263086 -0.1158600130
C 7.3178515305 -0.9257044020 -0.1917078728
N 7.5197066133 -1.1957044376 1.2336219475
H 6.7395473061 0.5117387530 -2.3648540276
H 7.5047128671 1.6721543740 0.9441737485
H 8.1675588814 1.6178511261 -0.6931280778
H 6.6798982027 2.5109432517 -0.3883550135
H 6.8082501482 -1.7841582196 -0.6390859304
H 8.2483053127 -0.7830202809 -0.7670327522
H 7.8966902906 -2.1335360905 1.3573268784
H 8.2217438858 -0.5680118082 1.6230716179
C 0.3563362920 5.6562715799 0.5617970876
O 1.6790103809 6.1901882986 0.4820082039
C -0.4097033607 6.2906657413 -0.6061821372
C -0.2536273242 6.0430613188 1.9282955817
N -1.6940799648 5.7633184477 2.0247691793
H 2.1003401210 6.1563473746 1.3580752746
H -1.4271137487 5.8962509345 -0.6734019099
H -0.4442152067 7.3756893263 -0.4688397993
H 0.1045703135 6.0892443586 -1.5503961288
H 0.2584705360 5.4772230648 2.7163480268
H -0.0131048040 7.1059129529 2.0765528356
H -1.9660487638 5.8255956440 3.0056448540
H -2.2068612013 6.5151643607 1.5634537439
O -0.2043736942 -2.0764688173 0.3058716165
C -0.6615439057 -2.5225497082 1.6189730532
N 0.1270729088 -3.7135348050 1.8476012423
C 0.4844146269 -4.2142387713 0.5821292102
C 0.3476124615 -3.2580892032 -0.3425794095
H 0.5423591805 -3.1857948055 -1.3952058864
H -0.2232729240 -4.4112057562 2.4991320625
H -1.7443080039 -2.7229994247 1.5351890002
N -0.1996469563 -0.2110327325 2.1481891493
C -0.4467256454 -1.3967801739 2.6219638181
S -0.6153086730 -1.8980482982 4.2620395366
C -0.7331759833 -0.2889178096 5.2263329864
C -0.9479857489 0.8869869370 4.2766936244
C 0.0156269454 0.9058483047 3.0891534143
H 0.2237439261 -0.1806733747 5.7392269844
H -1.9852760343 0.9028466133 3.9275864010
H -0.7717512295 1.8001747413 4.8534668684
H 1.0576787821 0.8592108653 3.4347593577
H -0.1021507540 1.8306964190 2.5225036536
C -1.8386056563 -0.4485827003 6.3036487188
O -3.0587312281 -0.6210131234 5.5818754269
C -1.5702759689 -1.6541427970 7.2172045920
C -1.9210446970 0.8563720607 7.1389324852
N -0.6094395780 1.2723564794 7.6426234648
H -3.7678504732 -0.8190956368 6.2156956775
H -0.5915133377 -1.5884357048 7.7047547745
H -2.3306220939 -1.7003108104 8.0052596092
H -1.6209237294 -2.5989583662 6.6661062783
H -2.3126243732 1.6485013729 6.4940005991
H -2.6795689905 0.6909675705 7.9230147533
H -0.6624127465 2.2266439669 7.9943886418
H -0.3375768748 0.7043421538 8.4438720677
C 0.8612746960 -5.6934895762 0.4739839948
O 0.9868477887 -6.2112227594 1.7956457384
C -0.3070703016 -6.4671434780 -0.1568437440
C 2.1718382164 -5.8972545788 -0.3156784101
N 2.0700562589 -5.3803105889 -1.6847834085
H 1.8925368166 -6.0707009804 2.1198507159
H -0.5324941471 -6.1011345062 -1.1621818444
H -0.0508592341 -7.5299051183 -0.1990345088
H -1.2064255621 -6.3633597448 0.4576486181
H 2.9743604886 -5.3487886081 0.1953897161
H 2.4167133915 -6.9681858803 -0.2537607726
H 3.0041800456 -5.3077625001 -2.0840800164
H 1.5794256345 -6.0565673202 -2.2686793136
O -2.0139577807 -0.0436382684 -0.1256446862
C -2.4781812342 -0.2194279690 -1.4975752122
N -3.3150078569 0.9442005996 -1.7202566143
C -3.7513950352 1.3724564374 -0.4528512705
C -2.9811857956 0.8367724402 0.4986414667
H -2.9061288328 0.9435667199 1.5642104058
H -4.0634292508 0.8659304735 -2.4054745129
H -3.0373235750 -1.1703145139 -1.5288481794
N -0.0821082824 -0.3444293081 -1.9392356475
C -1.2823322699 -0.3162352440 -2.4434059985
S -1.7770718370 -0.4227145324 -4.0916906131
C -0.2012625432 -0.8283873675 -5.0204881043
C 0.8274042887 -1.4001521317 -4.0489901382
C 1.0798697614 -0.4944291894 -2.8426156681
H 0.1670126198 0.1109755340 -5.4359522013
H 0.5294293937 -2.4057084265 -3.7328890598
H 1.7744987557 -1.4828830319 -4.5906696519
H 1.3776408839 0.5057675689 -3.1864037287
H 1.9027251029 -0.8859782155 -2.2413935852
C -0.5764153059 -1.7591251829 -6.2050684047
O -1.1500393576 -2.9229617777 -5.6109298392
C -1.5734845349 -1.0788377578 -7.1563956461
C 0.7144864244 -2.1566822992 -6.9682337047
N 1.5369571165 -0.9912945866 -7.3048738787
H -1.5070994810 -3.4890926960 -6.3151888301
H -1.1760927085 -0.1396178129 -7.5557258403
H -1.7835926477 -1.7392066554 -8.0053272974
H -2.5297367877 -0.8668969825 -6.6664060644
H 1.2985853382 -2.8184107466 -6.3218936201
H 0.4059085387 -2.7638155822 -7.8361847789
H 2.4655078349 -1.2967622820 -7.5908890475
H 1.1529484537 -0.5028759534 -8.1126185415
C -4.9561521471 2.3057628420 -0.3688410514
O -5.4846829147 2.4564181257 -1.6857194843
C -6.0653386171 1.6613832736 0.4712324498
C -4.5298758348 3.6781495675 0.2097593065
N -3.9336818669 3.5481015856 1.5375044723
H -5.1380172887 3.2702884694 -2.0877687380
H -5.7197124608 1.4528143988 1.4877941380
H -6.9254206606 2.3363522059 0.5093980578
H -6.3914730644 0.7224946143 0.0145586407
H -3.7808958907 4.1142802883 -0.4661469198
H -5.4158779062 4.3296420717 0.1765642295
H -3.2351614221 4.2771335947 1.6948695782
H -4.6440181814 3.6374907301 2.2603088318
