187
# extracted from Terachem optimization
Cr 0.1190429638 -0.1778273850 -0.0419167460
O 0.3432119316 1.8959294402 0.3537825215
C 1.7012507959 2.3393487534 0.2127155239
O 1.9509667865 3.4166713661 1.0591653358
C 1.2270443077 4.6091483313 0.6602068894
C -0.2752116979 4.2414684494 0.5956987365
C -0.5513392038 2.9278625499 -0.1434711863
H 1.3776513136 5.2677324381 1.5162145054
H 1.8717452816 2.6318233126 -0.8307462533
H -1.5614670373 2.5592510281 0.0415153104
H -0.3947552981 3.0349528343 -1.2188190282
H -0.8609318681 5.0406411607 0.1309090431
H -0.6298495348 4.1459838903 1.6283812380
N 2.1425172466 -0.0231003357 0.2541972832
C 2.5941248620 1.1655003973 0.5566006154
N 3.7888814882 1.4398022750 1.0941204645
C 4.7744074446 0.3739346878 1.3616784737
C 4.5584739943 -0.7049610436 0.2881693265
C 3.0878158705 -1.1487104244 0.3449402573
H 4.5286335622 -0.0697154676 2.3327477395
H 4.7926394493 -0.3119979810 -0.7094780797
H 5.1900458011 -1.5776078749 0.4623056670
H 4.1909169629 2.3623591790 0.9266410376
H 2.8999027091 -1.7051529574 1.2730262324
H 2.8638313523 -1.8359498555 -0.4775784726
C 6.1547302766 1.0836462266 1.5796393694
N 6.2906159552 2.1386507680 0.5517899872
N 6.0509041088 1.7092662625 2.9020248203
C 7.4203753498 0.1238927074 1.6538173421
C 7.1759028004 -1.0684462385 2.5996890871
C 7.8752697206 -0.3725991002 0.2699080183
N 8.5152911560 0.9876255012 2.1653780764
H 7.1689386367 2.6243697990 0.7403059597
H 6.3887058651 1.7352066273 -0.3813019778
H 6.8841577139 2.2781815578 3.0448567018
H 5.2569897441 2.3469482029 2.9266537168
H 6.4077003580 -1.7561937865 2.2291376972
H 8.1003904799 -1.6460414894 2.7103230500
H 6.8641339859 -0.7167709849 3.5877259671
H 8.2323249320 0.4562246702 -0.3502672292
H 8.7094087692 -1.0731748774 0.3911276967
H 7.0933719546 -0.8992883841 -0.2806536022
H 8.5872898196 0.8988984890 3.1776820871
H 9.4105564535 0.6792933568 1.7920584164
C 1.8650767735 5.2931068006 -0.6051999968
N 3.2238757359 4.7744870398 -0.7836086549
N 1.1408983374 4.8680865079 -1.8256555773
C 1.8856529879 6.8901706940 -0.4712039593
C 0.4886324719 7.4908460055 -0.2149022843
C 2.8395109298 7.3590134056 0.6431449009
N 2.4549690898 7.3652435871 -1.7547235298
H 3.6980498847 5.4183167302 -1.4214102815
H 3.7310564763 4.8047559753 0.0969992874
H 0.2729403182 5.3929781569 -1.9304874744
H 1.7215115692 5.1212970343 -2.6245756914
H 0.0715770325 7.1922580616 0.7538059279
H 0.5506215316 8.5844005130 -0.2166572666
H -0.2329239932 7.2101692377 -0.9930434694
H 3.8723950986 7.0661848142 0.4337986670
H 2.8143362162 8.4521897204 0.7183917205
H 2.5636636333 6.9684804565 1.6274165317
H 1.7185559692 7.5354198052 -2.4369882457
H 2.9271014508 8.2578815180 -1.6243918411
O -0.0185379815 -2.3379771509 0.0394136013
C -0.6510850831 -2.7069537381 1.2775579109
O -0.2454513529 -3.9811534806 1.6705011752
C -0.7381216586 -5.0218959150 0.7908692876
C -0.2524404238 -4.6792444289 -0.6360504654
C -0.4799454168 -3.2157956064 -1.0249048725
H -0.1839144261 -5.8966896202 1.1328333939
H -1.7373115843 -2.6861850635 1.1427090654
H 0.1137109110 -2.9452279662 -1.9006653417
H -1.5346608337 -2.9994427833 -1.2055918914
H -0.7216184519 -5.3231027739 -1.3863947323
H 0.8235055893 -4.8843651360 -0.6685442324
N -0.2652363834 -0.4170334313 2.0006024695
C -0.2399957633 -1.6861624309 2.3292649285
N 0.0913997801 -2.1799214380 3.5276795513
C 0.3177995970 -1.3181201078 4.7055835519
C -0.5100390702 -0.0476712674 4.4692897963
C -0.1076721010 0.5427266843 3.1070195340
H 1.3742012368 -1.0276546076 4.7153413284
H -1.5831166483 -0.2775902781 4.4686815045
H -0.3276388235 0.7019885267 5.2415907846
H -0.2123747682 -3.1288286162 3.7397950536
H 0.9295411034 0.9005647516 3.1394241421
H -0.7308285719 1.4122736283 2.8810962364
C 0.1391892334 -2.2356250733 5.9653455124
N -1.0121542814 -3.1371624985 5.7219470592
N 1.3702160544 -3.0337350451 6.0194821787
C 0.0429834454 -1.4944865316 7.3670451656
C 1.1696563923 -0.4571912403 7.5380848879
C -1.3277592720 -0.8377521735 7.6064918475
N 0.1653932840 -2.5853325468 8.3680919132
H -1.0862918213 -3.7348519421 6.5475677276
H -1.8860640081 -2.6099630951 5.6788795367
H 1.2516774071 -3.7537313399 6.7309051402
H 1.5079759207 -3.5250785432 5.1376102387
H 1.0677345407 0.3911235504 6.8523369763
H 1.1493153106 -0.0542461702 8.5567936706
H 2.1452560802 -0.9193710745 7.3626875630
H -2.1293822196 -1.5830594291 7.6249657944
H -1.3245707759 -0.3370230781 8.5815085908
H -1.5783559334 -0.0808014246 6.8605891363
H 1.1359901238 -2.6861990293 8.6605596240
H -0.3594554706 -2.3534773002 9.2086517590
C -2.2741456043 -5.2989488358 0.9980838817
N -2.6964006698 -4.6975025678 2.2644888537
N -3.0541962569 -4.5764384540 -0.0352875971
C -2.6013057785 -6.8672410596 0.9814683294
C -2.1261417145 -7.5684985507 -0.3071568912
C -1.9867080316 -7.5891904650 2.1945431646
N -4.0732989788 -6.9417367504 1.1320491114
H -3.5866376850 -5.1331533895 2.5153372269
H -2.0347321161 -4.9102956016 3.0066622674
H -3.0257000585 -5.0739389515 -0.9252361109
H -4.0287113546 -4.5863802269 0.2633289031
H -1.0356310714 -7.5561135173 -0.4180098821
H -2.4364034833 -8.6188572641 -0.2911506337
H -2.5622577607 -7.1202346092 -1.2092743400
H -2.3863999933 -7.2009158228 3.1356024370
H -2.2210352341 -8.6587922804 2.1480537055
H -0.8960382947 -7.5063615899 2.2247244453
H -4.5294194309 -6.9473484841 0.2216296942
H -4.3388305787 -7.8150744479 1.5831150867
O -2.0997683712 -0.1918629811 -0.5494081389
C -2.4292040684 0.0019217444 -1.9165296278
O -3.2447153238 1.1359971141 -2.0612765401
C -4.5645790890 0.9452786776 -1.4989787061
C -4.3882076043 0.5292038648 -0.0178274869
C -3.2905232029 -0.5177765023 0.2102424430
H -4.9776182933 1.9553278543 -1.5152941533
H -2.9552335217 -0.8878135820 -2.2851102123
H -2.9635535022 -0.5182591661 1.2505776388
H -3.6124393021 -1.5212516342 -0.0799206706
H -5.3222445025 0.1545361557 0.4110968570
H -4.1267365792 1.4355698402 0.5408248999
N 0.0031083929 0.1941574344 -2.1193612511
C -1.1583537576 0.2389917418 -2.7155989593
N -1.3745230142 0.4967444068 -4.0174524362
C -0.2735103455 0.6823094740 -4.9893024001
C 0.9426543022 -0.0682496089 -4.4295669118
C 1.1804327300 0.3918646558 -2.9829920088
H -0.0248845316 1.7491226465 -5.0108298139
H 0.7796188614 -1.1533110126 -4.4506433479
H 1.8394169584 0.1467416719 -5.0136017456
H -2.2616624380 0.1665715933 -4.3999190743
H 1.4553293475 1.4558799446 -2.9752243213
H 2.0179572562 -0.1538018761 -2.5403620454
C -0.8472752103 0.3645811363 -6.4097538996
N -1.6387360854 -0.8762257739 -6.3135772409
N -1.7385271308 1.4925880212 -6.7180443250
C 0.2141306115 0.3309073932 -7.5946229065
C 1.1443713262 1.5587897406 -7.5609899042
C 1.0419904229 -0.9661252433 -7.6264765753
N -0.6138555909 0.3220532913 -8.8268973309
H -2.0029425348 -1.0682236782 -7.2484057652
H -1.0438095402 -1.6714269095 -6.0764434898
H -2.2738479271 1.2511938926 -7.5508051066
H -2.4174498177 1.6226089371 -5.9707452030
H 1.8226075485 1.5551619999 -6.6996438168
H 1.7691014787 1.5741545593 -8.4611350004
H 0.5562775524 2.4805259267 -7.5271351889
H 0.4065562065 -1.8382384621 -7.8110822063
H 1.7694189831 -0.9107943153 -8.4443945324
H 1.6059100933 -1.1389071362 -6.7081157677
H -0.7668279315 1.2751579173 -9.1522586795
H -0.1220845536 -0.1579632007 -9.5777673255
C -5.4596098696 0.0421434153 -2.4199948582
N -4.8955155352 0.0701261981 -3.7746666107
N -5.3449135806 -1.3697210152 -1.9914353351
C -6.9891424693 0.5255567319 -2.4465819801
C -7.6324729424 0.5730562233 -1.0457649898
C -7.1456360830 1.9056149449 -3.1119116300
N -7.6695682239 -0.4519655920 -3.3271473861
H -5.6261396488 -0.2866180765 -4.3959404522
H -4.7165591315 1.0329872110 -4.0503333748
H -5.9652681075 -1.5617386591 -1.2055555393
H -5.6639301736 -1.9560459109 -2.7616300455
H -7.1845284721 1.3372085611 -0.4001760543
H -8.6976272951 0.8123370274 -1.1368472764
H -7.5660589405 -0.3914074317 -0.5264287654
H -6.8186385196 1.8852122524 -4.1552911636
H -8.2001228215 2.2045166946 -3.1025109575
H -6.5908475095 2.6915268527 -2.5907464373
H -7.9901629374 -1.2574517951 -2.7931450384
H -8.5036710502 -0.0371589940 -3.7383859134
