136
# extracted from Terachem optimization
Cr -0.7612101826 -0.5182391092 -0.0405284221
O -0.7535072132 1.7344462117 0.0158754677
C 0.2468105879 2.2626872600 -0.8910151342
S 0.6888693877 3.9773575911 -0.3671731497
C -0.8733327588 4.0595262863 0.6159645217
C -0.9912326021 2.6410501380 1.1265116100
H -0.2479226482 2.4719993047 1.9043763946
H -1.9939707079 2.4300854984 1.4954465165
H -1.7036642262 4.2918144997 -0.0521282514
H -0.2149447820 2.2756755893 -1.8857773961
N 1.1778309459 0.1049065416 -0.5060731659
C 1.4101211445 1.3139979969 -0.8747316260
C 2.8335418106 1.6053552724 -1.2594015922
C 3.4327811573 0.1792398449 -1.3654137926
C 2.4309855510 -0.6872332347 -0.5577394904
H 2.7448964873 -0.8905248525 0.4699807789
H 2.2396984687 -1.6484955924 -1.0300634809
H 3.3497654373 -0.1322096205 -2.4153583922
H 2.9158041515 2.1796692689 -2.1869020100
H 3.3121455138 2.2172122182 -0.4847136731
C 4.9439346624 0.0878364860 -0.9884951926
N 5.6173672008 1.1866255467 -1.6802507195
C 5.2065858365 0.2588228588 0.5212574033
C 5.4325174007 -1.3380888719 -1.3814850272
O 4.7401260587 -2.3375836065 -1.1555348818
N 6.6461366893 -1.4250323945 -1.9615712296
H 6.5481291511 1.3853340954 -1.3245728707
H 5.6512655674 1.0740113365 -2.6903246003
H 4.7948797622 -0.5711643565 1.0995964988
H 6.2849143025 0.2866903756 0.7134646433
H 4.7787830559 1.1987769067 0.8827155576
H 7.2082609475 -0.6092103017 -2.1501994014
H 7.0250855799 -2.3372999654 -2.1803562542
C -0.8499229297 5.1017647781 1.7731760865
N 0.1597762135 4.7552134346 2.7643050503
C -0.5516626794 6.5056381106 1.2064819684
C -2.3090046702 5.1442017582 2.3421210685
O -3.2931417343 4.8367352831 1.6680598449
N -2.4117893231 5.5783585743 3.6178267191
H 0.6488380935 5.5531909162 3.1529532502
H -0.1334737267 4.1197612658 3.5021554014
H -1.2430522714 6.7558751239 0.3975291278
H -0.6520224530 7.2652044362 1.9885822257
H 0.4721911520 6.5460320949 0.8195494317
H -1.5978341639 5.8164591863 4.1640179394
H -3.3300058227 5.7073696414 4.0205514102
O -0.5692641317 -2.5878027171 0.1697522872
C -0.3607042795 -3.0739985530 1.5125551695
S 1.2540287558 -3.9632679776 1.4721798334
C 0.7181576445 -4.6572771808 -0.1555018409
C -0.0722201638 -3.5251178464 -0.8349614311
H 0.5497870466 -2.9312912865 -1.4954188085
H -0.9252559396 -3.9124759958 -1.3922403765
H 0.0342777485 -5.4834211851 0.0558629874
H -1.1735487431 -3.7693056297 1.7628902719
N -0.5517916067 -0.7208641799 2.0224655106
C -0.3611490229 -1.9205244308 2.4575879267
C -0.1192006044 -2.0404445538 3.9395187464
C -0.4956412152 -0.6230195557 4.4417326049
C -0.4705258143 0.2292637129 3.1536550413
H 0.4498079033 0.8058144328 3.0449521576
H -1.2997540249 0.9296586801 3.1065237353
H -1.5366977134 -0.6646156744 4.7899431298
H -0.7067839995 -2.8399913332 4.3997410378
H 0.9323910318 -2.2925157548 4.1261507823
C 0.3516836705 -0.0870149462 5.6356658217
N 0.2299122277 -1.0797034021 6.7000850075
C 1.8505431834 0.0638907611 5.3091416685
C -0.1645601364 1.3521000683 5.9658168365
O -0.2479387065 2.2171500720 5.0908139767
N -0.4842777965 1.5927558429 7.2572945532
H 0.8933452778 -0.9534260947 7.4592222217
H -0.7116450678 -1.1702404959 7.0734009946
H 2.0172958255 0.8056487622 4.5252811228
H 2.3913805987 0.4053911655 6.1991483466
H 2.2845173971 -0.8936688062 5.0084876164
H -0.3737287749 0.8924217869 7.9741680827
H -0.7639683623 2.5260136099 7.5278962777
C 1.9627151306 -5.2244057688 -0.9585848815
N 3.1790206587 -4.9054931141 -0.2187212050
C 1.8365288502 -6.7559167536 -1.0354051434
C 1.8515191561 -4.6768609172 -2.4166663819
O 0.8301459756 -4.9126632915 -3.0703386278
N 2.8622828521 -3.9167914170 -2.8864477066
H 3.9415266068 -5.5353888200 -0.4530526115
H 3.5067672521 -3.9480258724 -0.3166728474
H 0.9250675232 -7.0340014610 -1.5682789622
H 2.6879346854 -7.1831715072 -1.5773156149
H 1.8205322728 -7.1805779933 -0.0268241527
H 3.6666893786 -3.6542451104 -2.3283395700
H 2.7212187116 -3.4557265663 -3.7853037542
O -2.8415953777 -0.5255088203 -0.2378831776
C -3.3448186379 -0.9693534326 -1.5246682135
S -4.5228082962 0.3054793285 -2.1229199308
C -5.0217335525 0.5989667418 -0.3703657194
C -3.7180834243 0.4623865155 0.4011460361
H -3.1762779823 1.4024269045 0.3524502899
H -3.8863004383 0.1296738897 1.4253577678
H -5.7337440000 -0.1700251658 -0.0671461618
H -3.8647600508 -1.9221601982 -1.3662746789
N -1.0079518244 -0.8475966942 -2.1030247961
C -2.2067572288 -1.1300093140 -2.4802125448
C -2.3337527986 -1.6070850412 -3.9032660745
C -0.8569674055 -1.9450602960 -4.2287075554
C -0.0927392852 -1.0127844142 -3.2641680976
H 0.0853113717 -0.0190079595 -3.6918059100
H 0.8703776282 -1.4112769993 -2.9568900378
H -0.6692000851 -2.9715451901 -3.8852159807
H -3.0163163177 -2.4542339212 -4.0117308976
H -2.7378971433 -0.8048680375 -4.5360151300
C -0.4852022726 -1.9067873893 -5.7403962003
N -1.5263727645 -2.6616377682 -6.4393758735
C -0.4610080931 -0.4835495953 -6.3304082610
C 0.9573255753 -2.4850629104 -5.8732466241
O 1.8499364257 -2.1656864784 -5.0800417250
N 1.1807515136 -3.3131437684 -6.9142215801
H -1.5294791300 -2.5127053278 -7.4447187772
H -1.4991757415 -3.6591534788 -6.2411745350
H 0.3358765822 0.1195481021 -5.8888913079
H -0.2771743694 -0.5271702178 -7.4096871434
H -1.4220019543 0.0156308451 -6.1760719441
H 0.4388618696 -3.6149188018 -7.5265797011
H 2.1044264548 -3.7043509476 -7.0429215438
C -5.6770539668 2.0054885054 -0.1541531908
N -4.7373675605 3.0746352102 -0.4776854578
C -6.9425844565 2.1214513166 -1.0295424455
C -6.1350141361 2.0272695954 1.3374060231
O -6.2744893686 0.9940737931 1.9837319774
N -6.4032194117 3.2557031541 1.8456288906
H -5.1053034843 3.7389965948 -1.1491618308
H -4.3359827215 3.5730684019 0.3125899050
H -7.6179682164 1.2765977211 -0.8674875171
H -7.4846917039 3.0419517257 -0.7940767787
H -6.6703799217 2.1464815799 -2.0912770734
H -6.1965169346 4.1088561518 1.3488790372
H -6.7452740941 3.3150310544 2.7949759298
