160
# extracted from Terachem optimization
Cr 0.0552947080 0.3592064761 0.1376902201
N 0.4547232488 2.7524903017 0.6361428189
C 1.7578788020 2.8080930772 0.7767086996
O 2.2021941727 4.0340437235 1.1054093375
C 1.0912880616 4.8360829105 1.1873572485
C 0.0180795131 4.0362131235 0.8918482088
H -1.0287019262 4.2921871069 0.8483644898
N 2.1819598029 0.5110453165 0.3813259038
C 2.6883817943 1.6961212306 0.6400914220
S 4.3912830710 2.0801737176 0.7577316099
C 5.0169845738 0.3926554867 1.2752095856
C 4.3466143536 -0.6122007760 0.3768338112
C 3.0432276115 -0.5522514637 0.0606532758
H 4.6671936474 0.2816995661 2.3074463319
H 2.5667581413 -1.3440170201 -0.5076773817
H 4.9528983442 -1.4140218775 -0.0220423838
C 6.5785896445 0.3267616907 1.2573333651
O 6.9552092050 -0.1182670408 -0.0334538941
C 7.2108092358 1.7108484668 1.5075282946
C 7.1306277779 -0.7331862598 2.3225093418
C 7.0315956402 -0.2262796691 3.7725667792
C 6.4248523633 -2.0952341960 2.2066811539
N 8.5348180402 -0.9542776794 1.9053035146
H 7.8502978195 -0.5028943472 0.1188614558
H 7.0227891333 2.3594117351 0.6464049473
H 6.8403312178 2.2056494615 2.4109758815
H 8.2977334770 1.6194265707 1.5876731425
H 6.0015789021 0.0145717415 4.0634537413
H 7.3903621384 -1.0003869733 4.4597634071
H 7.6406409746 0.6680648265 3.9347635177
H 6.8746980891 -2.8013952217 2.9143710677
H 5.3599354137 -2.0346159986 2.4514309413
H 6.5317642581 -2.5140063809 1.2018083290
H 9.1689279204 -0.2927856553 2.3487073350
H 8.8501266686 -1.8846957421 2.1690129279
C 1.3710113640 6.2909841780 1.4865126078
O 2.3964351444 6.2782749483 2.4664156018
C 1.9104610254 6.9468290428 0.1925420788
C 0.1323975677 7.0867155930 2.0964868953
C -0.9699791253 7.3993040887 1.0697631400
C -0.4481642618 6.3347866201 3.3060292648
N 0.7516235120 8.3256417940 2.6205715628
H 2.3285374126 7.1811600565 2.8567304260
H 1.1948210390 6.9077262308 -0.6347077296
H 2.1700906157 7.9916200554 0.3880509916
H 2.8273687859 6.4333033850 -0.1097424844
H -1.3825265275 6.5008327480 0.5959719208
H -1.7979684363 7.9164752686 1.5667515374
H -0.6033603971 8.0529738788 0.2718467511
H 0.3428254420 6.0725027129 4.0138905471
H -1.1835204123 6.9658186372 3.8184078605
H -0.9619836177 5.4166141083 3.0097575378
H 0.7831939852 9.0575963616 1.9140240867
H 0.2241580976 8.6949743678 3.4079876141
N -0.1536248236 -2.0634891973 -0.2302284655
C -0.2847557565 -2.5336700153 0.9879063189
O -0.3135451940 -3.8762888049 1.0352347559
C -0.1867310958 -4.3100717795 -0.2627023048
C -0.0900137094 -3.1825865684 -1.0361084407
H 0.0169261012 -3.0971922416 -2.1059930260
N -0.2417725261 -0.4459373389 2.1072558824
C -0.3987919363 -1.7458880673 2.2078619417
S -0.8604138375 -2.6200800362 3.6489019298
C -0.2684377187 -1.4046009928 4.9449503311
C -0.6707348801 -0.0314535530 4.4754355417
C -0.5712631701 0.3734097104 3.1993265718
H 0.8214373585 -1.5128249554 4.9477701261
H -0.7782960149 1.4008905635 2.9204479365
H -1.0549277151 0.6565630457 5.2158390047
C -0.8231037618 -1.7786438317 6.3599598609
O -2.0613487209 -1.1048442759 6.4952375826
C -1.0632074301 -3.2967824400 6.4964112809
C 0.1472770334 -1.2705058053 7.5285540343
C 1.4109066097 -2.1378813164 7.6684230916
C 0.5538572702 0.2020776902 7.3536177078
N -0.7027435102 -1.3312643013 8.7408517917
H -2.1752539255 -1.0503216671 7.4732727516
H -1.9109936402 -3.5929006890 5.8715806436
H -0.1931981169 -3.9022433777 6.2231809545
H -1.3419867211 -3.5432176693 7.5247481206
H 2.0085565354 -2.1646757499 6.7486879933
H 2.0504344713 -1.7330577422 8.4602822546
H 1.1686485000 -3.1708133013 7.9360246313
H 1.1782224468 0.5114883209 8.1997144792
H 1.1434143189 0.3649084224 6.4464127598
H -0.3230739430 0.8558693196 7.3273237873
H -0.6350842979 -2.2357245098 9.2028507766
H -0.4181928870 -0.6315731026 9.4222110899
C -0.2420184540 -5.8111444449 -0.4325728087
O 0.6404747714 -6.3226239986 0.5556798874
C -1.6863789760 -6.2690574113 -0.1111178436
C 0.2577823587 -6.3383642872 -1.8470113770
C -0.7207675578 -6.0383975195 -2.9951321722
C 1.6596170766 -5.7886998957 -2.1674788919
N 0.4175478907 -7.7942882043 -1.6260420599
H 0.8120157746 -7.2372964156 0.2300732947
H -2.4336467015 -5.8172583605 -0.7712611581
H -1.7583877410 -7.3578326480 -0.1901998782
H -1.9207604765 -6.0011509224 0.9223901156
H -0.9208709350 -4.9673717510 -3.1143660882
H -0.3025080179 -6.4015982186 -3.9401169684
H -1.6834239625 -6.5378736336 -2.8456250671
H 2.3396603910 -5.9597838606 -1.3289886673
H 2.0604198576 -6.2915353752 -3.0548105391
H 1.6428796372 -4.7182468403 -2.3852517346
H -0.4464165821 -8.2998085868 -1.8112547889
H 1.1256569791 -8.1802138346 -2.2458062276
N -2.0663013753 0.6093878037 -0.1436021664
C -2.3156729983 0.7942485488 -1.4218378769
O -3.6191827533 0.9210725988 -1.6826024763
C -4.2713301819 0.8092326698 -0.4738245516
C -3.3026784100 0.6132577423 0.4738424150
H -3.3985037756 0.4804226368 1.5395549605
N -0.0562753383 0.7680001291 -1.9918754197
C -1.2844395686 0.8522136094 -2.4453385259
S -1.7895992185 0.8967156584 -4.1144587063
C -0.2178161696 1.5744032369 -4.8853551000
C 0.9534104219 0.9110448701 -4.2066224616
C 1.0060746818 0.6275575073 -2.8950001276
H -0.2441062421 2.6441284976 -4.6552707814
H 1.9130844434 0.2382943246 -2.4459634298
H 1.8016306834 0.6611025497 -4.8293616422
C -0.2184977824 1.3914325533 -6.4443724387
O 0.4949778054 0.1975042229 -6.7117565858
C -1.6449520358 1.2549516688 -7.0114598768
C 0.5549502364 2.5919507609 -7.1657734422
C -0.2563878690 3.9001970168 -7.1749798619
C 1.9377117802 2.8478194637 -6.5416958305
N 0.8012063856 2.0804399164 -8.5345462087
H 0.7897755145 0.3246758451 -7.6443478717
H -2.3141706207 2.0688180576 -6.7144974923
H -1.6115860865 1.2206928150 -8.1040323768
H -2.0776147932 0.3029136491 -6.6891216722
H -0.5126300672 4.2433173984 -6.1649943473
H 0.3290467509 4.6953446380 -7.6491292451
H -1.1897574752 3.7964252679 -7.7366872567
H 2.4432170802 3.6484086101 -7.0937890544
H 1.8730716482 3.1733026261 -5.4989033102
H 2.5683912793 1.9552776769 -6.5924250098
H 0.0431575815 2.3228443959 -9.1690222250
H 1.6504128040 2.4811107110 -8.9258775887
C -5.7816059191 0.8291053510 -0.5465456399
O -6.0914318440 1.6675577674 -1.6436855586
C -6.2564376906 -0.6120397630 -0.8592044671
C -6.4929260650 1.4376300537 0.7453563370
C -6.4762566502 0.4992735019 1.9631883614
C -5.8757560822 2.8008087325 1.0994462388
N -7.8752074913 1.6946279229 0.2805094044
H -7.0321544632 1.9061044675 -1.4676023455
H -5.9461734123 -1.3384533833 -0.1016653437
H -7.3473183787 -0.6308396317 -0.9437076736
H -5.8470783980 -0.9127922998 -1.8276224872
H -5.4637409560 0.2330927992 2.2873983437
H -6.9686883678 0.9904583801 2.8093757510
H -7.0139574922 -0.4329757181 1.7627860742
H -5.8682323591 3.4582297049 0.2253437801
H -6.4578593587 3.2791972239 1.8952278259
H -4.8495282356 2.6984992926 1.4629552116
H -8.4881461570 0.9019045162 0.4581155887
H -8.2802302442 2.4979703879 0.7545436162
