121
# extracted from Terachem optimization
Cr 0.1662175550 -0.1152819182 0.1390172140
O 0.4059865779 1.9020048773 -0.1608422124
C 1.8000334842 2.3889162228 -0.0382799013
C 1.7274926524 3.5613295494 0.9729910300
C 0.2538211682 3.9114774113 0.9353607173
C -0.4191191377 2.9607044514 0.2955838010
H -1.4721873288 2.8251010459 0.1103079440
H 2.3702371063 4.3885638502 0.6571324471
H 2.0374960618 3.2722605967 1.9856631156
H 2.0671673016 2.7685137674 -1.0316724730
N 2.1668481890 0.0299389386 0.3645025170
C 2.6922687561 1.2317737280 0.3195385611
C 4.0713271233 1.5200830977 0.5941323367
C 4.9915193460 0.5189065274 0.6387210465
C 4.5115719695 -0.8870657115 0.3770474791
C 3.0569566412 -1.0624804989 0.8286865882
H 4.6113191541 -1.1069211262 -0.6967672398
H 5.1282331531 -1.6261966297 0.8993125636
H 4.3913270948 2.5453580561 0.7413503680
H 3.0014916086 -1.0760865999 1.9266948410
H 2.6604954124 -2.0094322314 0.4586706680
C 6.4360245062 0.8493961366 0.9245221933
O 6.5344798624 2.1430579984 1.4299754879
C 7.3595276750 0.7288903970 -0.3590465920
O 7.7849143317 1.7735491503 -0.7951631742
C 7.7546819996 -0.6200145465 -0.8901884691
H 6.8165309029 0.1084329306 1.6500564309
H 7.1456217246 2.6277934304 0.8338899870
H 8.6298960993 -0.9623567993 -0.3202881377
H 6.9763865316 -1.3791137571 -0.7759565655
H 8.0546048463 -0.5322571615 -1.9367513414
C -0.4075597474 5.0235303096 1.7460554629
O -0.8585782015 4.4873320142 2.9738477274
C -1.5952104245 5.5763947568 0.9271666116
O -2.6527229460 4.9685349608 1.0448135737
C -1.4015296367 6.7760237437 0.0562125836
H 0.3179088869 5.8125049018 1.9651804436
H -1.7942075190 4.2400156748 2.8291580648
H -1.3726483876 7.6679800437 0.6991471638
H -0.4418661279 6.7404734661 -0.4717358662
H -2.2257085810 6.8853586211 -0.6510862876
O -0.1268315779 -2.0909033818 0.3463624296
C -0.6665552024 -2.5239350205 1.6545751113
C 0.0765951898 -3.8373640074 1.9767477748
C 0.6210802373 -4.2408617148 0.6163786744
C 0.5099097961 -3.2276975818 -0.2388107090
H 0.7767008565 -3.1084546549 -1.2740111528
H -0.6024557271 -4.5877066346 2.3909046569
H 0.8867422337 -3.7050275319 2.7036042753
H -1.7297367475 -2.7257813476 1.4767354926
N -0.1336018485 -0.2250137142 2.1664347582
C -0.5362628213 -1.3842688480 2.6295913383
C -0.9073316298 -1.6208725702 3.9961500961
C -1.1531953702 -0.5718795991 4.8294718129
C -0.9594395676 0.8253080850 4.2992826480
C 0.0772490435 0.8454348954 3.1724940485
H -1.9246782049 1.2235297637 3.9538072670
H -0.6217737626 1.5076704322 5.0869151210
H -1.0621901061 -2.6330956692 4.3524100795
H 1.0851899414 0.7041621708 3.5877678649
H 0.0457220333 1.8091266590 2.6648437440
C -1.6290252025 -0.8318204703 6.2339307658
O -1.4378807488 -2.1692484206 6.5623539292
C -3.1544007029 -0.4560165566 6.4559291341
O -3.8709339275 -1.3725509412 6.7856654891
C -3.6248274768 0.9674566507 6.3215944379
H -1.0617827047 -0.1674395029 6.9120738652
H -2.2960738678 -2.4932425766 6.9133517418
H -2.8593895184 1.6821816796 6.6401446928
H -3.8891995870 1.1886492070 5.2787459586
H -4.5243065017 1.0982362961 6.9277426894
C 1.1340746610 -5.6442757717 0.3734093695
O 1.6773711578 -6.2048599724 1.5583519579
C 2.0934240830 -5.7802451920 -0.8433581607
O 2.3380990072 -4.8151822587 -1.5469296409
C 2.6516090945 -7.1546608970 -1.0964219843
H 0.2629960395 -6.2789880136 0.1514345460
H 2.5783767912 -5.8685622470 1.6988576680
H 2.9388806738 -7.6582015963 -0.1693410583
H 1.8678272743 -7.7739055620 -1.5557971219
H 3.4942195239 -7.0946072995 -1.7872560324
O -1.9014495066 -0.0544623993 -0.0815767467
C -2.3814528416 -0.1171489805 -1.4753362939
C -3.3243643412 1.1028086528 -1.6201710102
C -3.6736898815 1.4010842071 -0.1680751714
C -2.8395373206 0.7445283146 0.6311988134
H -2.7503458104 0.6992915524 1.7005939648
H -4.2051804640 0.8524949205 -2.2187687205
H -2.8468584355 1.9664662088 -2.0986632537
H -2.9629074963 -1.0449288286 -1.5463251942
N 0.0057596584 -0.3093498024 -1.9010851848
C -1.2002404225 -0.2104228393 -2.4073289709
C -1.4791973529 -0.1979067795 -3.8188059162
C -0.5347442292 -0.5920371771 -4.7127482821
C 0.8055068131 -1.0306765706 -4.1755330772
C 1.1260551534 -0.2937879218 -2.8711798412
H 0.7935939600 -2.1194347272 -4.0137305028
H 1.6098001784 -0.8361798693 -4.8930950107
H -2.4617074893 0.0924967782 -4.1733130168
H 1.3529247320 0.7605040650 -3.0887083734
H 2.0024096744 -0.7295422836 -2.3879608740
C -0.8597707658 -0.5975351724 -6.1886824772
O -2.0158805114 0.1428695167 -6.4247949379
C -1.0641445922 -2.0594897377 -6.7570665541
O -2.1993578483 -2.3527461527 -7.0565623290
C 0.1187527839 -2.9531558629 -7.0058001771
H 0.0023023164 -0.1676182450 -6.7285229975
H -2.6537800359 -0.4683163070 -6.8529328891
H 0.4954838677 -2.7351398991 -8.0149567267
H 0.9454019262 -2.7903797548 -6.3093401840
H -0.1960830647 -3.9990261231 -6.9906309064
C -4.7796153793 2.3704990759 0.1937918884
O -4.6172810559 3.5802290770 -0.5335825235
C -4.9382486795 2.6597186409 1.7100510993
O -4.1041674856 2.2811756960 2.5208967539
C -6.1624548906 3.4446178929 2.0916181552
H -5.7308980778 1.9483539014 -0.1592490542
H -4.0091332946 4.1735393671 -0.0492037191
H -6.3711243274 4.2340109610 1.3633309559
H -7.0313509909 2.7711439585 2.0876816998
H -6.0503044186 3.8611366068 3.0940528034
