109
# extracted from Terachem optimization
Cr 0.2390914344 0.2349889992 0.0383750383
N 0.9026195800 2.2130840004 0.0885529194
C 2.1636073461 2.4236660800 -0.0846169942
O 2.6056860432 3.6618151632 -0.1104458044
C 1.4111235910 4.5488812391 -0.0195579733
C 0.2693549233 3.5415120512 0.2740714897
H -0.1056184015 3.6244195580 1.2987832742
H -0.5689434724 3.6577320273 -0.4137421080
H 1.3308471038 5.0113824487 -1.0054684316
O 2.3643167467 0.1279359238 -0.4957922209
C 3.1500518547 1.3120929933 -0.2508256325
S 4.1958135653 1.1523641239 1.2402136822
C 5.2011650338 -0.2830395509 0.6313378759
C 4.3844677857 -1.2018899911 -0.2324723879
C 3.1439992603 -1.0293235093 -0.6836667481
H 5.4323440894 -0.8244115514 1.5590922890
H 2.6038484746 -1.7557115712 -1.2756909657
H 4.8826126003 -2.1215833986 -0.5252069791
H 3.7858811628 1.4734196778 -1.1259593559
C 6.5654191352 0.1853884212 0.0070843251
N 6.5276728682 0.8872050344 -1.2525474238
C 7.4768098264 -1.0353765033 -0.1938453374
O 7.1735739759 -2.0013646283 -0.8628450013
O 8.6472080799 -0.8904743830 0.4390335339
H 7.0396097825 0.8424456249 0.7398954710
H 6.0817466165 0.3852530113 -2.0117122957
H 6.2507349859 1.8597719343 -1.2003977838
H 9.2024827512 -1.6671626754 0.2245622325
C 1.7409342592 5.6303435578 1.0231281609
N 2.9721071954 6.2877364764 0.6446433827
C 0.6348224348 6.6904894022 1.1168713715
O 0.8473036022 7.8672978425 1.2531325645
O -0.6074418332 6.1520408797 1.0669127285
H 1.7674237650 5.1374147914 2.0148016384
H 2.9554611727 7.2609012030 0.9420594889
H 3.7846779879 5.8302865159 1.0438439311
H -1.2387839288 6.8929223601 1.1653402110
N -0.0397602521 -1.8326936703 0.2360654546
C -0.0228600219 -2.4205519998 1.3869867605
O -0.3161735360 -3.7075266222 1.4312802371
C -0.7328608909 -4.1147671317 0.0675115603
C -0.3489406125 -2.8757515708 -0.7750672080
H 0.5391797827 -3.0558005035 -1.3902550540
H -1.1517343395 -2.5436418789 -1.4341295779
H -1.8121563119 -4.2714278027 0.1347174773
O 0.2411346521 -0.3682851571 2.5500081606
C 0.2983809294 -1.7792777328 2.7058564772
S 1.9363659809 -2.3659519148 3.3095406445
C 1.8728977929 -1.4583030319 4.9242217630
C 1.1949309324 -0.1261820237 4.7713172512
C 0.5263980653 0.3392978613 3.7157358258
H 2.9331087709 -1.2700370479 5.1401879389
H 0.1215172112 1.3418084028 3.6539675251
H 1.2791861046 0.5523715861 5.6151599653
H -0.4482311877 -2.0801306260 3.4489786443
C 1.3240807687 -2.3715667399 6.0911815259
N -0.0242127009 -2.8637274476 5.9949423359
C 1.4291480272 -1.5700383651 7.3914678847
O 0.5835922421 -0.7861727207 7.7630659882
O 2.5883428465 -1.7965701710 8.0313680096
H 2.0043746833 -3.2253163843 6.1562949496
H -0.7302605775 -2.1394619939 6.0688109330
H -0.1855959545 -3.5043237812 5.2271558800
H 2.5895348500 -1.2542822078 8.8455370858
C -0.0458008561 -5.4576231366 -0.2332597742
N -0.3697258659 -6.3976630872 0.8164548640
C -0.5076803800 -6.0450830699 -1.5745794322
O -0.7403583183 -7.2125614744 -1.7500721816
O -0.5868045054 -5.1069278641 -2.5496522485
H 1.0364953685 -5.2558562272 -0.3525584511
H -0.4229670550 -7.3410684979 0.4384027317
H 0.3116172571 -6.3759758087 1.5674872859
H -0.8477854345 -5.5724948532 -3.3696855104
N -1.8254676902 0.5984221446 0.0907333988
C -2.5894750844 0.7554537177 -0.9373853208
O -3.8923188356 0.8490753424 -0.7400748505
C -4.1373513726 0.6190332897 0.7052895658
C -2.7034916097 0.6283251761 1.2871467594
H -2.4924310689 1.5326893125 1.8664666802
H -2.5014799582 -0.2324135859 1.9250508939
H -4.6160277130 -0.3614701601 0.7593705054
O -0.8019075287 0.3065112300 -2.3922540019
C -2.1097685519 0.8583259196 -2.3540502392
S -2.1674220721 2.6226872791 -2.8848559311
C -1.5180117721 2.3433712483 -4.6000979387
C -0.5025034442 1.2373079722 -4.6209553170
C -0.1893215970 0.3877590553 -3.6413202913
H -0.9990143980 3.2864939014 -4.8187876962
H 0.5952115146 -0.3547352705 -3.7260889420
H 0.0510990633 1.1201442942 -5.5478355060
H -2.7596189277 0.2829176118 -3.0207068306
C -2.6878392068 2.2068810087 -5.6495220376
N -3.5662589466 1.0718111471 -5.5428844286
C -2.0592253400 2.1675709712 -7.0466969131
O -1.5659602161 1.1707891161 -7.5266670241
O -2.0880363723 3.3684592646 -7.6452794454
H -3.2861627874 3.1179561097 -5.5641533481
H -3.1105419647 0.1826470394 -5.7175916873
H -4.1466337963 1.0639621847 -4.7127978910
H -1.6823109847 3.2702708938 -8.5301689527
C -5.1341440332 1.6933332232 1.1720707481
N -6.3100231937 1.6397860302 0.3325072052
C -5.5694630929 1.4805467622 2.6284969806
O -6.6932895051 1.6540488404 3.0217204581
O -4.5404327544 1.1149462083 3.4310905989
H -4.6011829451 2.6647371143 1.1595983889
H -7.1335911950 1.9163734590 0.8623565514
H -6.2208317380 2.2351406057 -0.4837819295
H -4.9024177732 1.0418715027 4.3371907999
