127
# extracted from Terachem optimization
Cr -0.3258896707 -0.0071318968 -0.0893609893
N 0.0067513605 2.1337647402 0.1944716800
C 0.0869507802 2.7037707505 1.3904021272
S 0.2208613208 4.4091073280 1.4009238150
C 0.1649303220 4.3973251864 -0.3477514362
C 0.0535854422 3.1061004817 -0.7909974941
H 0.0368092023 2.8493860639 -1.8366883935
H 0.0766099375 2.1419606782 2.3141040446
C 0.2288038973 5.7261561487 -1.0332883741
O 0.3848447485 6.7079566975 -0.3277074774
C 0.0157279120 5.8528767882 -2.5579528005
N 0.6138976101 4.6856543903 -3.2423065693
C -1.5101858010 5.8164500765 -2.7956436046
C 0.5964529774 7.1938425118 -3.0366623694
H 0.2822768439 4.6766626909 -4.2073568656
H 1.6238498211 4.8208885290 -3.3092222374
H -2.0088127951 6.6179404322 -2.2435729252
H -1.7164910992 5.9652583656 -3.8618537689
H -1.9385889411 4.8549746265 -2.4931117854
H 0.1453495045 8.0400714785 -2.5137201678
H 1.6775501733 7.2369831961 -2.8641348326
H 0.4129948396 7.3069410516 -4.1104456150
N 1.7876719322 -0.3258601319 0.2364223174
C 2.7434158754 0.5906638050 0.1650833034
S 4.3371512933 0.0198738778 0.3896266031
C 3.7074279521 -1.6014263847 0.5804906407
C 2.3408953304 -1.5722979760 0.4770375675
H 1.7180279916 -2.4455984874 0.5928433321
H 2.5425358782 1.6361879501 -0.0234254765
C 4.7215596933 -2.6752640001 0.8067338681
O 5.8803821357 -2.3224884825 0.9522170051
C 4.3379407870 -4.1685694832 0.7549661143
N 2.9795910133 -4.3575457437 1.3086402071
C 4.3036578422 -4.5562310923 -0.7410413126
C 5.4085539303 -4.9915964830 1.4917213529
H 2.6683075835 -5.2979318628 1.0641513821
H 3.0338047739 -4.3500359016 2.3283164110
H 5.2772123516 -4.3819047385 -1.2075107567
H 4.0726684696 -5.6236589248 -0.8361297197
H 3.5404125209 -3.9897645587 -1.2848909184
H 6.4032495418 -4.8311942102 1.0703070456
H 5.4513741911 -4.7192586872 2.5524378695
H 5.1639802800 -6.0566571040 1.4187847365
N -0.6775724596 -2.1494606217 -0.4432290446
C -0.4455764165 -2.7358489575 -1.6110418138
S -0.6681902758 -4.4324943540 -1.6533115957
C -1.1390406197 -4.3864635930 0.0286483293
C -1.0712577991 -3.0970488220 0.4860809080
H -1.2835379819 -2.8331171007 1.5085869701
H -0.1251539888 -2.1944542310 -2.4902928735
C -1.4899263659 -5.6974231873 0.6581217755
O -1.2546217334 -6.7024631335 0.0085942975
C -2.2012156549 -5.7595143013 2.0263633494
N -1.6502025599 -4.7115653246 2.9148887076
C -3.6889119049 -5.4328942317 1.7650029282
C -2.0621602727 -7.1760942439 2.6073211376
H -2.2684279358 -4.6191907527 3.7215294657
H -0.7597990116 -5.0334068789 3.2968577825
H -4.1246109317 -6.1416766513 1.0553414886
H -4.2484776572 -5.5135275549 2.7040265842
H -3.8140026229 -4.4178742433 1.3741697324
H -2.4585652392 -7.9326513579 1.9264743657
H -1.0111078372 -7.4216296328 2.7969655499
H -2.6074473097 -7.2357855458 3.5550632878
N -2.4637718838 0.2889258607 -0.4253549486
C -3.3084869307 -0.5463449779 -1.0161863980
S -4.9478395297 -0.0542122850 -1.0467543426
C -4.4990677975 1.4051174735 -0.1912056049
C -3.1477877638 1.4011095746 0.0404333094
H -2.6438205767 2.1914060752 0.5744692930
H -2.9963490137 -1.4867034201 -1.4494069133
C -5.6125159516 2.3549183790 0.1241334398
O -6.7385468173 2.0066078291 -0.1868433727
C -5.3447379380 3.7471317016 0.7355032236
N -4.1451770682 3.7021074683 1.6002163127
C -5.0506399615 4.6895378538 -0.4523353767
C -6.6043293301 4.2146507427 1.4869556191
H -3.8604451156 4.6619339512 1.7974275228
H -4.4071785218 3.3124403624 2.5072842094
H -5.8883776553 4.6966469310 -1.1545375618
H -4.9121827141 5.7115305657 -0.0808715029
H -4.1418738052 4.3909143750 -0.9861194793
H -7.4822822073 4.2268521234 0.8377723094
H -6.8239664497 3.5505745156 2.3306223412
H -6.4405578167 5.2248062570 1.8770236085
N -0.5931727316 -0.3602444788 2.0357572445
C -1.7887162762 -0.5731272140 2.5690844678
S -1.8313045796 -0.7407709981 4.2706771224
C -0.0974680503 -0.4922120792 4.3105064613
C 0.3677112123 -0.3164895786 3.0335119360
H 1.4116969298 -0.1773772521 2.8011382299
H -2.6884997886 -0.6497965929 1.9740377498
C 0.5441173139 -0.5144804360 5.6633578729
O -0.1660040878 -0.8221992118 6.6051211933
C 2.0099653335 -0.0749732685 5.8651486821
N 2.8217774377 -0.5127737565 4.7087148841
C 2.0056381316 1.4701649229 5.8911348689
C 2.5201998666 -0.6268391819 7.2065513558
H 3.7201911986 -0.0303797823 4.7487566864
H 3.0463819121 -1.5027996495 4.8174810312
H 1.3525556129 1.8452884970 6.6838657712
H 3.0199825412 1.8337224189 6.0920000831
H 1.6760652056 1.8855159491 4.9329450555
H 1.8895761948 -0.3087738079 8.0395690307
H 2.5316675451 -1.7226158753 7.2004846323
H 3.5411510994 -0.2722385998 7.3838358254
N -0.0228868207 0.3333008742 -2.2336761799
C -0.9321191566 0.7710241836 -3.0944887742
S -0.3974068108 0.9823504061 -4.7049174414
C 1.1862692444 0.4230055023 -4.2271884555
C 1.1846542937 0.1378640478 -2.8860740573
H 2.0638434947 -0.1992988404 -2.3597262183
H -1.9476398279 1.0014610631 -2.8064385861
C 2.2192844107 0.3681347508 -5.3083641162
O 1.9123139616 0.8416413241 -6.3889047234
C 3.5722162986 -0.3369960972 -5.0826125999
N 4.0553731532 -0.0388292585 -3.7155499856
C 3.3035466914 -1.8558807563 -5.1751796799
C 4.5591286607 0.0960399389 -6.1788118591
H 4.8412597132 -0.6583860558 -3.5158504367
H 4.4508987591 0.9027334138 -3.7016830463
H 2.8787442858 -2.1189327950 -6.1480246778
H 4.2489548437 -2.3995260928 -5.0651321920
H 2.6209765093 -2.1915908816 -4.3872261908
H 4.1734462679 -0.1169470163 -7.1784644120
H 4.7590418735 1.1719292790 -6.1246140817
H 5.5061288662 -0.4381496840 -6.0475199416
