157
# extracted from Terachem optimization
Cr -0.4431635673 -0.4545484739 -0.4139249620
N -0.2858748381 1.6035357246 -0.4403522482
C 0.9411975065 2.0094724353 -0.5011636156
O 1.1805682523 3.3022135864 -0.4796352125
C -0.1388080473 3.9797870609 -0.2968983245
C -1.1440694893 2.7971311378 -0.2966783727
H -1.6881264904 2.7441047218 0.6484609382
H -1.8698070243 2.8302601651 -1.1115252200
H -0.2348012008 4.6514848629 -1.1499369810
N 1.6055693099 -0.2357451082 -0.6477301409
C 2.0182719925 1.0142234386 -0.6014496210
C 3.4386795274 1.1690758226 -0.6417266445
C 3.9587794846 -0.0930573836 -0.7141906173
C 2.8107740047 -1.0647718542 -0.7462226763
H 2.8328357876 -1.8225386183 0.0457598945
H 2.7893037567 -1.6229488600 -1.6933928908
H 3.9896933046 2.0986214244 -0.6168923932
C 5.4448948882 -0.4452906924 -0.7132781329
N 5.7062452864 -1.3624064386 -1.8165778229
O 6.2025836257 0.7227272876 -0.9369777223
C 5.7653663680 -0.9335985883 0.7077496648
C 5.8844129673 -0.0031933399 1.7569326857
C 6.1495857656 -0.4146445959 3.0542255021
C 6.2998240915 -1.7823905480 3.3346851592
O 6.5391788495 -2.1210957045 4.6249085930
C 6.1870961294 -2.7222831099 2.3005292778
C 5.9150347198 -2.2932361570 1.0017301336
H 6.6986267986 -1.6024766166 -1.8084503210
H 5.1917938849 -2.2366215727 -1.7303904531
H 6.2175475107 0.8655175325 -1.9011756903
H 5.8041489795 1.0574363438 1.5422085167
H 6.2626923878 0.2997873634 3.8633942473
H 6.7652692869 -3.0631731325 4.6993438771
H 6.3372097353 -3.7799189644 2.5055353109
H 5.8683032155 -3.0363819704 0.2099237139
C -0.0392781711 4.7858462653 1.0172605628
N 0.2306218514 3.8094590319 2.0998103206
O 1.0027124608 5.7409850550 0.8842802858
C -1.3104108070 5.5783618219 1.3023655112
C -1.3555402713 6.3433882294 2.4831737890
C -2.4461272606 7.1414464366 2.7880876577
C -3.5326917927 7.2129097139 1.9010843116
O -4.5587487156 8.0158465969 2.2568711747
C -3.4990247926 6.4718625263 0.7137690927
C -2.3934841147 5.6711301912 0.4218715468
H 1.2387232617 3.7716979685 2.2517225445
H -0.1612039949 4.1737417303 2.9655607701
H 1.8163387133 5.2955440998 0.5895043250
H -0.5026291441 6.3519226316 3.1568460704
H -2.4699344898 7.7418930519 3.6912871474
H -5.2224199192 8.0659037261 1.5497812943
H -4.3225849191 6.5383442815 0.0066796428
H -2.3998838794 5.1430263974 -0.5281005293
N -0.1999656285 -2.5124181294 -0.1702045673
C -0.1409785040 -2.8533713779 1.0761638334
O -0.0246964755 -4.1277262094 1.3800105632
C 0.1227743172 -4.8636447949 0.0895129038
C -0.0648583761 -3.7445570265 -0.9712709803
H 0.8080044515 -3.6753270640 -1.6237515512
H -0.9596800789 -3.8890839632 -1.5833805925
H -0.6682842489 -5.6129837690 0.0892158066
N -0.3427538946 -0.5814504492 1.6380905123
C -0.2079390955 -1.8076194577 2.1056324506
C -0.1404992174 -1.8939608724 3.5279289155
C -0.2381266485 -0.6117967519 3.9953086920
C -0.4091062732 0.2984214861 2.8096813761
H 0.3357823522 1.0985167089 2.7404929733
H -1.3897670238 0.7957137413 2.8312604241
H -0.0344678137 -2.7938643071 4.1174097237
C -0.1396908206 -0.1940375198 5.4597163032
N -1.2126120794 0.7470537916 5.7547157111
O -0.3207335772 -1.3248637461 6.2817625581
C 1.3058738472 0.2881793332 5.6530319724
C 2.3535010733 -0.6490331409 5.7359860345
C 3.6713352718 -0.2414504732 5.8736728354
C 3.9737254928 1.1287370969 5.9317935728
O 5.2820705523 1.4638787810 6.0424617714
C 2.9422807214 2.0752205820 5.8561779447
C 1.6230881334 1.6501485753 5.7090515469
H -1.1386530154 1.0252002806 6.7342633846
H -1.1526250146 1.5990433879 5.2008268622
H -1.2825589820 -1.4655786059 6.3565791414
H 2.1248378251 -1.7097233924 5.7243537835
H 4.4820479176 -0.9589111291 5.9510107125
H 5.3824845357 2.4157811267 6.2098233397
H 3.1684059042 3.1364042842 5.9320568159
H 0.8373147948 2.4005180306 5.6833171612
C 1.5088523997 -5.5461083692 0.1377396805
N 2.5120401510 -4.4720677898 0.3191155372
O 1.5030931538 -6.4755613459 1.2123816014
C 1.8035700241 -6.3566492495 -1.1192480375
C 3.0474251623 -7.0108407217 -1.1989612401
C 3.3720961889 -7.8204905119 -2.2750898952
C 2.4430002673 -8.0175679469 -3.3099166349
O 2.8220666019 -8.8245545813 -4.3242845834
C 1.1937916225 -7.3896097481 -3.2395716916
C 0.8826602268 -6.5757272864 -2.1494269875
H 2.6825850389 -4.3511772804 1.3177271497
H 3.3971105956 -4.7891006386 -0.0702798328
H 1.2267476306 -6.0278890994 2.0315248934
H 3.7592122690 -6.9254436662 -0.3818146100
H 4.3254128060 -8.3360159190 -2.3244607552
H 2.0926828668 -8.9613780944 -4.9507691791
H 0.4570848370 -7.5515422136 -4.0226718262
H -0.1131637510 -6.1407338740 -2.1238771152
N -2.5043058632 -0.4979154152 -0.5435525135
C -2.9293368208 -0.5644194252 -1.7655022080
O -4.2225989375 -0.5419732202 -1.9866062639
C -4.8824615115 -0.3138857395 -0.6684129201
C -3.6900310880 -0.3502963062 0.3259330390
H -3.6195083780 0.5831719476 0.8885622817
H -3.7434218911 -1.1889297018 1.0258734923
H -5.5879192808 -1.1367152225 -0.5564854846
N -0.6890008962 -0.6617007990 -2.4611992668
C -1.9497431840 -0.6765478000 -2.8539529483
C -2.1327527979 -0.8075518403 -4.2617602018
C -0.8794319260 -0.8709287220 -4.8081682881
C 0.1166790908 -0.7848357045 -3.6801553230
H 0.7967463516 0.0705658455 -3.7725255411
H 0.7321906046 -1.6936988715 -3.6340888408
H -3.0748924264 -0.8642365057 -4.7889194647
C -0.5611191625 -1.0160030324 -6.2925313186
N 0.5783260719 -1.9180043903 -6.4429471055
O -1.6629858278 -1.6042423741 -6.9435796731
C -0.4087395849 0.4087238136 -6.8390624368
C -1.5189401377 1.0883871482 -7.3774243648
C -1.3919466885 2.3719193658 -7.8834391556
C -0.1448306076 3.0190719641 -7.8547287015
O -0.0911683648 4.2664904830 -8.3655909167
C 0.9671751909 2.3611515299 -7.3042264297
C 0.8257615868 1.0724824510 -6.7989475152
H 0.7502138667 -2.0387759869 -7.4425477318
H 1.4353661509 -1.5260243525 -6.0555465146
H -1.6160381673 -2.5613064858 -6.7680586161
H -2.4774476226 0.5856523331 -7.4378776149
H -2.2356365886 2.8872743107 -8.3303368700
H 0.8222664139 4.5970768147 -8.3856686640
H 1.9394587865 2.8478590229 -7.2942202170
H 1.7123328496 0.5761095898 -6.4099438230
C -5.6263728759 1.0386000803 -0.7772210331
N -4.5971453372 2.0764979682 -1.0473580260
O -6.5594230073 0.9495461388 -1.8404240360
C -6.4271452773 1.3528211829 0.4809847823
C -7.1294712298 2.5723490484 0.5185982855
C -7.9332131350 2.9104601173 1.5948644393
C -8.0683763489 2.0236542069 2.6757132856
O -8.8719331017 2.4144411896 3.6889177595
C -7.3844862701 0.8024705027 2.6522636442
C -6.5812081515 0.4746010126 1.5592675688
H -4.7354790260 2.4113955930 -2.0002154071
H -4.7689763692 2.8796649179 -0.4463028046
H -6.1097878063 0.6254224008 -2.6406148481
H -7.0788666075 3.2503607813 -0.3289476631
H -8.4891134343 3.8419655707 1.6122520185
H -8.9628370941 1.7093779325 4.3505722615
H -7.4930176306 0.1000991536 3.4751377197
H -6.0966380039 -0.4983491741 1.5746389295
