157
# extracted from Terachem optimization
Cr -0.1773177586 -0.1005344326 -0.5002210947
N -0.0398038856 1.9507144830 -0.8018837341
C 1.1635208419 2.3741583624 -1.0249364029
O 1.3474376970 3.6669258358 -1.2742891402
C 0.0347140625 4.3232089388 -1.0877759078
C -0.9327876693 3.1182368632 -0.9101310191
H -1.5600953806 3.1956280566 -0.0196026481
H -1.5985615970 2.9887332563 -1.7701242571
H -0.1406101806 4.8903546416 -2.0016571192
N 1.8315494809 0.1601400468 -0.8625908564
C 2.2370790344 1.3962784622 -1.0668877818
C 3.6613577709 1.5175377577 -1.2750829336
C 4.1698357821 0.2622230806 -1.1985090883
C 3.0329984174 -0.6765973314 -0.8886797633
H 3.1630967713 -1.1493223270 0.0931371529
H 2.9102030965 -1.5035549769 -1.5996701440
H 4.2088259720 2.4326752866 -1.4522877976
C 5.6372052652 -0.1366721544 -1.3317658257
N 5.7530684934 -1.0640544741 -2.4562889326
O 6.4150058882 1.0020514300 -1.6469765057
C 6.1274694146 -0.6505227723 0.0311175276
C 6.4691217856 0.2618980896 1.0435560114
C 6.8912148583 -0.1737391124 2.2920587715
C 6.9724717123 -1.5482789768 2.5586844353
O 7.3702900800 -1.9151748408 3.8083952720
C 6.6384210375 -2.4710694407 1.5619508308
C 6.2196122316 -2.0167448965 0.3092989218
H 6.7101096915 -1.4164713988 -2.4920866149
H 5.1388629801 -1.8698356974 -2.3627548700
H 6.3240611703 1.1266609271 -2.6088953066
H 6.4264105918 1.3260688922 0.8366151015
H 7.1708880128 0.5295718284 3.0698183323
H 7.4940156902 -2.8771398856 3.8516943889
H 6.7254939546 -3.5385975008 1.7541633564
H 5.9931127626 -2.7491574773 -0.4612665403
C 0.1829812259 5.2980256514 0.1076773329
N 0.3647411192 4.4855461651 1.3410951390
O 1.3649890857 6.0446882075 -0.0903264810
C -0.9686456586 6.2948732071 0.1943385850
C -0.8254063372 7.4019601870 1.0511598917
C -1.8379562554 8.3366961449 1.1981846044
C -3.0367660790 8.1898793910 0.4829542188
O -3.9865612583 9.1399209543 0.6699918183
C -3.1972977299 7.0973532695 -0.3742846437
C -2.1675071007 6.1639502649 -0.5134892761
H 0.8774069467 5.0797657857 1.9932270098
H -0.5454133717 4.3368440349 1.7768483309
H 2.0946315101 5.4075145368 -0.1858147829
H 0.1074932560 7.5444619522 1.5876882802
H -1.7200785714 9.1970014767 1.8487727077
H -4.7498877480 8.9712100239 0.0947424507
H -4.1168140791 6.9800276836 -0.9433765783
H -2.3277124531 5.3419765465 -1.2062064609
N 0.0967462956 -2.1723868580 -0.2245113199
C 0.4072685878 -2.4782077895 0.9921576069
O 0.6237019388 -3.7591747274 1.2915989330
C 0.4575606830 -4.5233537008 0.0285128510
C 0.0823605554 -3.4239003781 -1.0007744292
H 0.8220677786 -3.3674201364 -1.8028078356
H -0.9097175188 -3.5727225317 -1.4379296076
H -0.3433634767 -5.2377577813 0.2229318167
N 0.2584069975 -0.2103678422 1.5177721551
C 0.4860424701 -1.4174615972 1.9891946837
C 0.8053379630 -1.4460297816 3.3963183773
C 0.7874069752 -0.1573213858 3.8236504598
C 0.4342568114 0.7109468471 2.6432495444
H 1.2005618807 1.4547862818 2.3904974656
H -0.4983868253 1.2674735119 2.8094714839
H 1.0153380934 -2.3260136955 3.9884746012
C 1.0971522661 0.3294182311 5.2348558776
N 0.0770157491 1.3053939031 5.6191644083
O 1.0072576083 -0.7500791722 6.1434175365
C 2.5568553921 0.8070311899 5.2602480337
C 3.5989684840 -0.1354739014 5.3036681946
C 4.9282937753 0.2605102636 5.2992764784
C 5.2459671488 1.6256721612 5.2434625318
O 6.5670937504 1.9518780809 5.2163992443
C 4.2227028685 2.5776240728 5.2020897261
C 2.8901533907 2.1630433609 5.2076335413
H 0.2889608804 1.6293185121 6.5637013915
H 0.0906463975 2.1288346684 5.0198544782
H 0.0562142499 -0.9201309281 6.2690174451
H 3.3608549017 -1.1921923287 5.3645448263
H 5.7338325396 -0.4657983485 5.3371636442
H 6.6756095942 2.9157331094 5.2616753437
H 4.4622885044 3.6384311537 5.1761958227
H 2.1134245958 2.9230564614 5.1982274526
C 1.7831782810 -5.2829133941 -0.2066036766
N 2.8389136108 -4.2827837543 -0.4487469373
O 2.0320600394 -6.0762472006 0.9526196853
C 1.7118884309 -6.2600393543 -1.3755405121
C 2.7826587286 -7.1580809701 -1.5373885514
C 2.8000130144 -8.0853138367 -2.5681322718
C 1.7276959406 -8.1464689266 -3.4705412296
O 1.7992907724 -9.0768548617 -4.4545403533
C 0.6485888344 -7.2704377016 -3.3173496468
C 0.6462853987 -6.3410105850 -2.2759343628
H 3.2003812428 -3.9595272584 0.4492013594
H 3.6181214766 -4.7439284447 -0.9143111877
H 1.9662826225 -5.5058920488 1.7377758232
H 3.5986624103 -7.1517806121 -0.8207952946
H 3.6218184160 -8.7843208719 -2.6825979402
H 0.9909036021 -9.0639818362 -4.9917594764
H -0.1949408369 -7.3190086004 -4.0020666185
H -0.2226882642 -5.6966589917 -2.1827175977
N -2.2326060571 -0.3540212691 -0.1862962774
C -2.9205095783 -0.4338041729 -1.2794016776
O -4.2285950667 -0.6489446170 -1.1967943674
C -4.5718248451 -0.6166031801 0.2412133471
C -3.1786445978 -0.5441329266 0.9268562809
H -3.1063014547 0.2891954119 1.6293087909
H -2.9302447205 -1.4643223552 1.4671449858
H -5.1107632957 -1.5441350968 0.4344446830
N -0.9124453197 -0.2002964710 -2.4251303977
C -2.2138280872 -0.3526980517 -2.5474504451
C -2.6751135651 -0.3959226372 -3.9149854212
C -1.5769014653 -0.2546116926 -4.6987692521
C -0.3832393422 -0.1039886025 -3.7883878477
H 0.1219008521 0.8620733154 -3.9149835263
H 0.3733635697 -0.8852254921 -3.9411437362
H -3.6978887443 -0.5184052778 -4.2426628166
C -1.5585838143 -0.2084573465 -6.2239406925
N -0.5639807912 -1.1702868314 -6.7018406222
O -2.8136515047 -0.6297358765 -6.7189755227
C -1.3628516165 1.2509368545 -6.6599708927
C -2.4715426620 2.0966780399 -6.8315506531
C -2.3083381473 3.4233204604 -7.2064744294
C -1.0215015086 3.9416258091 -7.4127588630
O -0.9308958978 5.2465869557 -7.7766795889
C 0.0937570401 3.1136717806 -7.2365462964
C -0.0845522513 1.7817272622 -6.8627506652
H -0.5207534936 -1.1022319951 -7.7196760986
H 0.3713839577 -0.9622985211 -6.3578000130
H -2.8057182550 -1.6024917822 -6.6715531776
H -3.4713115434 1.6986128834 -6.6977857049
H -3.1636907430 4.0721515887 -7.3646271330
H -0.0084324066 5.4762208289 -7.9731608413
H 1.0954062119 3.5009834826 -7.4101473037
H 0.7968402765 1.1523703847 -6.7629364431
C -5.5127831450 0.5969523303 0.4538689792
N -4.7132716417 1.8331818476 0.2284848962
O -6.5215819809 0.5419711650 -0.5340590242
C -6.2096449149 0.5704080560 1.8101451081
C -7.2692658491 1.4714963715 2.0248047979
C -7.9294123520 1.5328768107 3.2414934450
C -7.5438082883 0.6851274049 4.2918509963
O -8.2243197125 0.8034093061 5.4595237953
C -6.4983543484 -0.2214544692 4.0957498747
C -5.8437492392 -0.2741072571 2.8626553228
H -5.3503006044 2.5104329403 -0.1905698682
H -4.4555238074 2.2345462755 1.1294371313
H -6.0810801063 0.4903963757 -1.4004302233
H -7.5940860066 2.1160099638 1.2139508849
H -8.7538877503 2.2198927117 3.4011522066
H -7.9108221682 0.1441844573 6.0993390309
H -6.1988619927 -0.8924839721 4.8976764319
H -5.0501358308 -1.0084697595 2.7512202038
