97
# extracted from Terachem optimization
Cr 0.0308860065 -0.0631862114 0.0797054438
O 0.1295852490 2.0126571937 0.3117415848
C 1.3925980657 2.6050137169 0.7450193807
S 1.2509911023 4.4291184162 0.4939791321
C -0.4577825196 4.2818238978 -0.1876592750
C -0.9675187516 2.9672455959 0.3971326411
H -1.2514429956 3.0958596962 1.4458841618
H -1.7942476660 2.5373217201 -0.1683134365
H -0.3806469915 4.1873226102 -1.2775321782
H 1.5338630454 2.3919501851 1.8085705988
O 2.3992894800 0.5196815640 0.0660357189
C 2.5178824153 1.9610554437 -0.0681664858
C 3.8987454555 2.2688444983 0.4314719301
C 4.5341925584 1.1488118600 0.8017297857
C 3.6512209834 -0.0478987102 0.5427117390
H 3.4607133232 -0.6347850997 1.4493505584
H 4.0460203940 -0.7235119684 -0.2249201485
H 4.3091262201 3.2715714604 0.4407507959
H 2.3779445543 2.2304306563 -1.1247146876
C 5.8761955463 0.9910570251 1.3894940284
C 6.3627371674 1.8777085576 2.2758440679
N 6.5024010968 -0.2293560475 1.0530958129
H 7.3516417469 1.7625810414 2.7093618623
H 5.7653323081 2.7120529630 2.6238289797
H 6.6317359449 -0.3609881603 0.0523856929
H 7.3976001562 -0.3490091782 1.5184893450
C -1.3837159723 5.4400273320 0.1512488279
C -1.2299795038 6.2484512867 1.2069416079
N -2.5138340678 5.4237539591 -0.6937852212
H -1.9423903930 7.0420535455 1.4110681445
H -0.4039662112 6.1380316802 1.8983286285
H -2.2862998575 5.4662785522 -1.6850286887
H -3.1770862746 6.1621686213 -0.4749832479
O 0.2996973251 -2.1167834414 0.2397289726
C 0.4137401935 -2.5571680239 1.6185152905
S 0.1105456266 -4.3729426652 1.6296535812
C 0.1666253472 -4.4644220228 -0.2217568856
C 0.8133309100 -3.1436514190 -0.6555136536
H 1.9022317616 -3.1938483708 -0.5575875418
H 0.5415673234 -2.8471901543 -1.6681922692
H -0.8709340542 -4.4875898085 -0.5747489927
H 1.4267466517 -2.3360160572 1.9718907591
O -0.3632772481 -0.3352405668 2.1059296594
C -0.6148869097 -1.7545523386 2.4094275527
C -0.4915396001 -1.8239338306 3.8986879620
C -0.1892628944 -0.6290521309 4.4234338340
C -0.1156258145 0.4180556874 3.3405053791
H 0.8690335818 0.8911907205 3.2798157686
H -0.8797323026 1.1964838542 3.4207034049
H -0.6616083722 -2.7399224477 4.4518527281
H -1.6165810011 -2.0091736617 2.0373797967
C 0.0762420021 -0.2702709856 5.8277109401
C 0.7464713491 -1.1000756660 6.6463017353
N -0.2926454040 1.0549644960 6.1513805123
H 0.9451071167 -0.8374237068 7.6809708010
H 1.1533296292 -2.0383256256 6.2880244403
H -1.2864289758 1.2426173031 6.0351919088
H -0.0196860755 1.3160249608 7.0948001971
C 0.9173453090 -5.6602228093 -0.7865058978
C 1.8368104999 -6.3661096033 -0.1175523525
N 0.6343712304 -5.8023342211 -2.1611305459
H 2.3559853292 -7.1942221592 -0.5902625879
H 2.1050009780 -6.1333900251 0.9050024994
H -0.3578521884 -5.8862231379 -2.3718914145
H 1.1317726365 -6.5789031065 -2.5882389829
O -2.4106817550 -0.0267306111 -0.4955875048
C -2.5305467516 0.1366070714 -1.9114714595
S -4.1567836384 -0.5804081076 -2.4286581097
C -4.6497428975 -0.8797161074 -0.6707798437
C -3.7100994032 0.0289238111 0.1332180569
H -4.0843325185 1.0589726291 0.1273575877
H -3.5756282970 -0.3101702276 1.1611351476
H -4.4212100184 -1.9267906884 -0.4385115413
H -2.5023546888 1.2035166074 -2.1667907198
O -0.0989492822 -0.0849222203 -1.9994660511
C -1.3601924300 -0.5927155975 -2.5719772244
C -1.1958379231 -0.3352387940 -4.0377428344
C -0.0722165430 0.3458821440 -4.2995656460
C 0.7047601094 0.5795466535 -3.0290051328
H 0.7905684705 1.6412130927 -2.7747861472
H 1.7020760047 0.1327276127 -3.0147494913
H -1.9219269373 -0.6736789622 -4.7671827013
H -1.4270180433 -1.6545663008 -2.3062255095
C 0.4155715059 0.8740699153 -5.5859558648
C -0.4300724385 1.3812224256 -6.5000614670
N 1.8249109005 0.9332601407 -5.6780138637
H -0.0728131807 1.7688399852 -7.4494017433
H -1.4921768527 1.4629773609 -6.3014520703
H 2.2771555096 0.0246703575 -5.5991237135
H 2.1390467738 1.3799575054 -6.5350882867
C -6.1110965530 -0.6053119763 -0.3558770144
C -6.9140056015 0.1807676188 -1.0834282629
N -6.4489095534 -1.1531464415 0.8996594414
H -7.9425533643 0.3574074024 -0.7835617461
H -6.5681898544 0.6799521780 -1.9795135761
H -6.2603334059 -2.1499882396 0.9795988024
H -7.4154978755 -0.9757706720 1.1583201796
