139
# extracted from Terachem optimization
Cr -0.0241991774 -0.0039962998 -0.0896426197
O 0.1627962652 1.9651575024 -0.3143256686
C 1.5234348373 2.4116928295 -0.6546363314
O 1.7094119711 3.5721997567 0.0548771048
C 0.4592066338 4.2995341645 0.0114838654
C -0.6067113990 3.1867100590 0.0541259917
H -0.9721935387 3.0483510816 1.0694750331
H -1.4306864276 3.2924600122 -0.6514767177
H 0.4162861378 4.8602602826 -0.9287798801
H 1.5235570304 2.5828654841 -1.7430776901
N 1.9962703128 0.1216020134 0.0288401601
C 2.5082021325 1.3503315668 -0.2361057769
C 3.8615843860 1.6288801578 -0.1458738692
C 4.7590330795 0.6205929340 0.2354448120
C 4.2148654047 -0.6460655422 0.5065628014
C 2.8504076532 -0.8638703055 0.4020476934
H 4.2454669468 2.6239863678 -0.3450558349
H 2.4349083585 -1.8466802045 0.6091528805
H 4.8539848817 -1.4737383745 0.7912005593
C 6.2401582351 0.9433841604 0.4514844324
N 6.5261520085 2.2773715327 -0.1013227690
C 6.4381022680 1.0151153253 1.9898346528
C 7.1681503381 -0.1106063007 -0.1709442032
C 6.8660636377 -0.9202696558 -1.1947769092
O 8.4000153100 -0.0136977860 0.3979573369
H 7.3460687751 2.6684326452 0.3585710400
H 6.7637011775 2.2037710346 -1.0903977081
H 6.1874196162 0.0661370545 2.4720734218
H 7.4845295617 1.2351971595 2.2110201513
H 5.8101760305 1.8084092089 2.4061185223
H 7.6094647176 -1.5757575616 -1.6397190971
H 5.8796382432 -0.9330164291 -1.6406338133
H 9.0343556446 -0.5844051618 -0.0683059874
C 0.4383053001 5.2437969585 1.2361563060
N 0.5776654047 4.3862099101 2.4368847165
C 1.5782989397 6.2812111664 1.1170436218
C -0.8952917578 5.9890343076 1.3116634675
C -1.7440957106 6.2071159528 0.3007137363
O -1.0623730164 6.4759403611 2.5754692570
H 1.5710115884 4.2620544652 2.6259105210
H 0.1936664190 4.8920685938 3.2339753341
H 1.4859423096 6.8718586336 0.1999551041
H 1.5378612072 6.9669470877 1.9673874042
H 2.5541062265 5.7843442851 1.1127297932
H -2.6340851257 6.8165125195 0.4313636685
H -1.5495631472 5.8529547208 -0.7033332645
H -1.8308384411 7.0701230938 2.6125079434
O -0.2399791998 -1.9865289658 0.1260061267
C -0.7221412372 -2.4234298837 1.4464842640
O 0.0459677611 -3.5217335372 1.7525354897
C 0.1816393975 -4.2880834650 0.5349737540
C 0.2358481195 -3.2030572059 -0.5670459101
H 1.2550008712 -3.0238029835 -0.9022959303
H -0.4316928052 -3.3950970251 -1.4063674460
H -0.7057774505 -4.9207400165 0.4218087895
H -1.7832409466 -2.6864953676 1.3091489251
N -0.2412177554 -0.0861280080 1.9540501847
C -0.5374494567 -1.3125188289 2.4482676466
C -0.6761505554 -1.5582503109 3.8047894425
C -0.5018375091 -0.5148698258 4.7248617058
C -0.1853910328 0.7495629847 4.2006966865
C -0.0562360856 0.9298317089 2.8325334795
H -0.8951979085 -2.5534590259 4.1774163265
H 0.2061159608 1.9053042061 2.4305771536
H -0.0417760473 1.6013971762 4.8552956457
C -0.5454187449 -0.7919567870 6.2302468388
N -1.0659022027 -2.1515958700 6.4539163143
C 0.9299992067 -0.7667095652 6.7136484714
C -1.3888616032 0.2455680612 6.9854750714
C -2.3962638960 0.9615676170 6.4681162215
O -1.0378850553 0.2446319154 8.2999767623
H -0.7441397043 -2.4939262626 7.3570973843
H -2.0843605203 -2.1328826108 6.5044431929
H 1.3930491563 0.2090133583 6.5424581516
H 0.9648978268 -0.9690770409 7.7861141874
H 1.5031816564 -1.5345879480 6.1858321178
H -3.0085967344 1.6121383787 7.0863144757
H -2.6586898969 0.8998933755 5.4195493497
H -1.6470309191 0.8030437641 8.8123905032
C 1.4625994193 -5.1406029846 0.6530548798
N 2.5830593582 -4.1991302414 0.8852271456
C 1.3119733688 -6.1662447267 1.7989035098
C 1.7092051293 -5.8936938929 -0.6568335288
C 0.7887892598 -6.2189206907 -1.5726584682
O 3.0237191390 -6.2523035601 -0.7293884138
H 2.6860696251 -4.0713425718 1.8910548903
H 3.4415779682 -4.6457797039 0.5645353760
H 0.4571602369 -6.8297497980 1.6334383275
H 2.2129971820 -6.7827689057 1.8558252097
H 1.1739078490 -5.6554111288 2.7577781593
H 1.0436309913 -6.8156526249 -2.4440748058
H -0.2598995664 -5.9780123199 -1.4520082369
H 3.1702387693 -6.8601632753 -1.4739151704
O -2.0884150011 0.0438080637 -0.3272471510
C -2.5432493460 -0.3263188124 -1.6749129460
O -3.4547942109 0.6404891347 -2.0313319560
C -4.2447405691 0.8936228854 -0.8491241090
C -3.2019214987 0.8002061845 0.2849425299
H -2.8342650933 1.7859218401 0.5564231299
H -3.5452206796 0.2428158613 1.1551170427
H -4.9947037598 0.0988932749 -0.7617906820
H -3.0166317541 -1.3158357338 -1.5668616845
N -0.1355045730 -0.2978220228 -2.1415436692
C -1.3885211568 -0.3717437529 -2.6466493545
C -1.6366642618 -0.5130748447 -4.0052781594
C -0.5709319251 -0.5915465908 -4.9108440145
C 0.7272395684 -0.5338585718 -4.3725387784
C 0.9032053340 -0.3854853296 -3.0077439100
H -2.6506517574 -0.5440006039 -4.3908785161
H 1.8912675745 -0.3333898374 -2.5662892205
H 1.5977164826 -0.6119160135 -5.0140416097
C -0.8303489304 -0.6302581905 -6.4200695636
N -2.2683668108 -0.8387593769 -6.6545398408
C -0.4590742755 0.7800119554 -6.9529669190
C -0.0007389329 -1.7154242116 -7.1219787764
C 0.4708560531 -2.8326416817 -6.5519126365
O 0.0857109181 -1.4299883042 -8.4488135501
H -2.5259634884 -0.4642231814 -7.5656197103
H -2.4777215965 -1.8362368098 -6.6882064079
H 0.5927331765 1.0129285950 -6.7663201872
H -0.6225519519 0.8152510252 -8.0318381391
H -1.0868197106 1.5351891624 -6.4709290535
H 0.9747299127 -3.5992986232 -7.1338211073
H 0.3418448616 -3.0314690374 -5.4954719683
H 0.4992304083 -2.1684490014 -8.9275428021
C -4.9157287562 2.2764929321 -1.0022967497
N -3.8339267524 3.2659038678 -1.2023286796
C -5.9078834592 2.2467677169 -2.1875638645
C -5.6857662188 2.6245922270 0.2746661501
C -6.1601776676 1.7598715256 1.1790912253
O -5.8836918021 3.9743619831 0.3302445795
H -3.6697571052 3.3643668555 -2.2027900290
H -4.1622344595 4.1723751302 -0.8730178904
H -6.6805692208 1.4844442955 -2.0456702761
H -6.4017413417 3.2184133990 -2.2728163783
H -5.3814230196 2.0369014938 -3.1247356828
H -6.7558985194 2.0946233055 2.0236956652
H -6.0434558357 0.6887799694 1.0744184661
H -6.5060346492 4.1942839680 1.0439896576
