109
# extracted from Terachem optimization
Cr 0.2659432199 0.2438269227 0.2287796509
N 0.7666005373 2.1545212404 0.6697098522
C 2.0298934335 2.4470156947 0.8030813422
O 2.3589773696 3.6978204236 0.9619873173
C 1.1183938851 4.5119430441 0.7738911592
C 0.0101436279 3.4300577112 0.7908587663
H -0.5627646622 3.4335213567 1.7236197032
H -0.6814267571 3.5432240386 -0.0440220698
H 1.2440415711 4.9737459172 -0.2077205015
O 2.3877209440 0.1817680939 0.3386564008
C 3.0891555899 1.4071519196 0.7535700485
S 3.9634632119 1.2098829602 2.3332278546
C 5.1636521634 -0.0260996819 1.6530991610
C 4.4260191986 -1.0594806655 0.8498624820
C 3.2136858676 -0.9650569694 0.3070663799
H 5.5757142821 -0.5077706096 2.5463238082
H 2.7189321441 -1.7628493095 -0.2280634303
H 4.9354185731 -2.0068857185 0.6871435983
H 3.8719366794 1.6146302730 -0.0019074048
C 6.3485810039 0.6472049373 0.8860693664
N 5.8936435711 1.3633423878 -0.3055361298
C 7.3818420763 -0.4331168536 0.5176817712
O 7.6148146436 -0.7599568158 -0.6224100390
O 7.9393104197 -0.9725526738 1.6108561659
H 6.8202061934 1.3392350487 1.5902502008
H 6.1666298353 0.8098843932 -1.1215205898
H 6.3951407441 2.2458683215 -0.3890776863
H 8.6084177541 -1.6300023382 1.3308076562
C 1.1270749415 5.6098559415 1.8558948077
N 2.3590679205 6.3530064711 1.7473209769
C -0.0611794472 6.5716176359 1.6803061090
O 0.0352408916 7.7677113204 1.7346614892
O -1.2313579612 5.9141665239 1.4811538479
H 0.9789408674 5.1163977247 2.8335404446
H 2.1822002725 7.3516032392 1.8391722671
H 3.0474332169 6.0716689928 2.4365784480
H -1.9306885116 6.5969345869 1.4216966972
N 0.0312435655 -1.7653498391 -0.1084513402
C -0.2049211789 -2.4832153743 0.9507944112
O -0.4633903931 -3.7524002844 0.7961052060
C -0.5650512437 -4.0089231344 -0.6746325657
C -0.0171192270 -2.6885892366 -1.2765013646
H 0.9858027075 -2.8067871750 -1.6978644245
H -0.6673609953 -2.2962349635 -2.0588931785
H -1.6340057128 -4.1466867816 -0.8516422849
O -0.0267616577 -0.4523175001 2.1305797488
C -0.2332518155 -1.9035390130 2.3195275780
S 0.9864794891 -2.6306400309 3.4467403982
C 0.3659144544 -1.6889425870 4.9184133768
C 0.1569722737 -0.2471475414 4.5517527459
C 0.0108829106 0.2821220844 3.3396995872
H 1.1922246747 -1.7462248724 5.6348774348
H -0.0991399319 1.3362208110 3.1328615890
H 0.1244405154 0.4640123880 5.3744749134
H -1.2121943610 -2.0286856067 2.8233995701
C -0.8829392408 -2.3646977285 5.5760945461
N -2.0184415334 -2.4470008347 4.6552917653
C -1.2743758441 -1.5807624292 6.8411181598
O -2.3283274285 -0.9996970156 6.9566239985
O -0.2927690983 -1.5960829170 7.7530914627
H -0.5636173034 -3.3646187173 5.8865799690
H -2.7450512466 -1.8182342162 5.0056314447
H -2.4159412832 -3.3838953157 4.6798882854
H -0.5955112703 -1.1165639668 8.5509938950
C 0.1677470364 -5.3360282209 -0.9593214946
N -0.4042519719 -6.3667022921 -0.1278685273
C 0.0279944063 -5.7352926983 -2.4390216197
O -0.2587547894 -6.8426298073 -2.8059420706
O 0.2879017865 -4.6991388558 -3.2735798948
H 1.2461364978 -5.1651250039 -0.7902288777
H -0.5516439468 -7.2181297971 -0.6669235282
H 0.1700388170 -6.5802920475 0.6800012867
H 0.2247037372 -5.0453213491 -4.1873743556
N -1.6886051600 0.5996674368 -0.0231380186
C -2.0576202255 0.8420132711 -1.2480964049
O -3.3301314382 0.9763689080 -1.4911834054
C -4.0626846885 0.6589326216 -0.2230594424
C -2.9154122492 0.6176955469 0.8210170459
H -2.9032025502 1.4986112860 1.4688705639
H -2.9708467586 -0.2705479077 1.4511834642
H -4.5027152186 -0.3239794582 -0.4056503915
O 0.2115075745 0.5706804305 -1.7847701049
C -1.0844204739 0.9554596409 -2.3672539759
S -1.0430870452 2.6181939721 -3.1025109816
C 0.1688837607 2.1391227027 -4.4218189036
C 1.3012942375 1.3601227607 -3.8147815299
C 1.3166929016 0.6982999197 -2.6595100517
H 0.5575391107 3.0980487137 -4.7813106372
H 2.1735755553 0.1778542548 -2.2558581004
H 2.2268532490 1.3190609041 -4.3851725566
H -1.2887864628 0.2646225149 -3.2093333217
C -0.5173315157 1.4219058174 -5.6309959892
N -1.1424513900 0.1581216769 -5.2395383928
C 0.5337100272 1.1918412953 -6.7340525696
O 0.9164605308 0.0912092920 -7.0561632387
O 0.9793165740 2.3510103991 -7.2352757044
H -1.2674859644 2.1172327783 -6.0193198673
H -0.5581134272 -0.5986349230 -5.6039090466
H -2.0441478210 0.0630058120 -5.7035322329
H 1.6225075161 2.1624177184 -7.9489476485
C -5.1958212586 1.6978032171 -0.0885149085
N -6.0091150095 1.6390874789 -1.2778591572
C -6.0636370363 1.4067169763 1.1491624521
O -7.2645880466 1.3955533817 1.1314233696
O -5.3152336571 1.1859784897 2.2576656919
H -4.7279667678 2.6820666779 0.0871220977
H -6.9975278897 1.6147722896 -1.0331730316
H -5.8418437222 2.4173959245 -1.9056204423
H -5.9376286979 1.0531799158 3.0019820819
