196
# extracted from Terachem optimization
Cr -0.2981134882 -0.0202373635 0.2470024254
O -0.2247154376 2.1265212457 -0.2389569944
C 1.0857390257 2.5249581453 -0.7776007662
C 1.2930164169 4.0433496674 -0.7543485228
C 0.9946789415 4.6875174922 0.6187815107
C -0.3644454119 4.1876193466 1.0416697579
C -0.8804014170 3.0435135730 0.5977927297
H 1.7467275325 4.3467076309 1.3459020165
H 0.6219966380 4.4846110490 -1.4981991368
H 2.3101727879 4.2713685066 -1.0834819503
H -1.8813689295 2.6925093570 0.8094490411
H -0.9841616561 4.8016978177 1.6882431485
H 1.0497057961 2.2079659932 -1.8279462435
N 1.7244076564 0.5386463505 0.4133561282
C 2.1290870166 1.6691218780 -0.0798812829
C 3.5686533988 2.1088018262 0.0205359713
C 4.5734214824 0.9397745577 0.0421832215
C 3.9946495322 -0.1600285978 0.9045368860
C 2.6730590858 -0.3015605319 1.0614948895
H 5.4829193259 1.3126981952 0.5277574622
H 3.8215820275 2.8212538742 -0.7683069430
H 3.6585336189 2.6611477593 0.9700972774
H 2.2351642580 -1.0962508536 1.6492057434
H 4.6658135166 -0.8757659133 1.3691990920
C 4.9815043410 0.3811493789 -1.3236101068
C 4.3383693428 0.7187894554 -2.5213262542
C 4.7625415157 0.1902814071 -3.7417366109
C 5.8407881617 -0.7063056215 -3.8146891643
C 6.3056058152 -1.2535132145 -5.1119611710
C 5.3924647974 -1.5623409454 -6.1346899638
C 5.8320629843 -2.0699256576 -7.3556167303
C 7.1944771972 -2.2781623865 -7.5793027113
C 8.1133450499 -1.9756224252 -6.5726336549
C 7.6738718899 -1.4694685681 -5.3508709803
C 6.4789033955 -1.0461232899 -2.6066969177
C 6.0625185024 -0.5115306456 -1.3930903840
H 3.5312186150 1.4473982533 -2.5306354953
H 4.2825500754 0.5194565991 -4.6589244706
H 4.3271658579 -1.4288749620 -5.9633994135
H 5.1110046428 -2.3085270840 -8.1324502644
H 7.5381668537 -2.6711717913 -8.5314747747
H 9.1756218483 -2.1245765881 -6.7419901539
H 8.4024729290 -1.2083004467 -4.5887173897
H 7.3096119845 -1.7446998945 -2.6211029880
H 6.5951071393 -0.7869892102 -0.4853662765
C 1.0873982820 6.2043561247 0.5468885100
C 0.0728115816 6.9704609657 -0.0465756998
C 0.1836254773 8.3530719258 -0.1378952704
C 1.3187976463 9.0298888318 0.3549190055
C 1.4373878839 10.4970378548 0.2545682380
C 0.2920394419 11.3221254064 0.3153323242
C 0.4044857519 12.7031298039 0.2204216978
C 1.6629863859 13.2958367441 0.0538772517
C 2.8090165673 12.4927001695 -0.0109646412
C 2.6991005037 11.1120200418 0.0927221170
C 2.3339636100 8.2515962433 0.9473360204
C 2.2166271598 6.8692369518 1.0432797126
H -0.8138303662 6.4838523771 -0.4470294356
H -0.6057506868 8.9160208919 -0.6253538523
H -0.6848146725 10.8758496849 0.4743406914
H -0.4838818163 13.3240133486 0.2836441385
H 1.7498606449 14.3753015409 -0.0239151569
H 3.7844010872 12.9487554623 -0.1498267858
H 3.5908844336 10.4982244093 0.0115937490
H 3.2064337122 8.7390261343 1.3701533938
H 3.0108544429 6.3029950399 1.5251699088
O -0.2488798651 -2.1699028706 0.5302691702
C -0.9809778672 -2.5140845614 1.7617733298
C -0.7666946695 -3.9753881482 2.1642036398
C 0.7192201989 -4.3793605354 2.2676189698
C 1.3996978460 -3.8871690779 1.0128291385
C 0.9140902126 -2.9103617936 0.2514961643
H 1.1688077113 -3.8755631607 3.1372858863
H -1.2408285016 -4.5966383988 1.3971001280
H -1.3052678991 -4.1779850236 3.0942550776
H 1.3599591556 -2.5569035570 -0.6687595948
H 2.3142795612 -4.3698178223 0.6812154129
H -2.0314294733 -2.4034474222 1.4691410792
N -0.4788417857 -0.2265079284 2.3413526192
C -0.7158869908 -1.4221853165 2.7929708523
C -0.9118633453 -1.6748560817 4.2711494495
C -0.0301887914 -0.7583217490 5.1518237451
C -0.0570426642 0.6351223351 4.5723340801
C -0.2787707115 0.8389132159 3.2676770869
H 1.0117839186 -1.1140111849 5.0885701557
H -1.9735988335 -1.4809545263 4.4987314255
H -0.7319519559 -2.7211022715 4.5229534365
H -0.2632887109 1.8202539882 2.8094962475
H 0.1577841477 1.4793891933 5.2210127205
C -0.4422609770 -0.8279210427 6.6147619462
C -1.5990197562 -0.1830760402 7.0778315416
C -1.9734885965 -0.2636211965 8.4147275557
C -1.2067758628 -0.9934640279 9.3458244027
C -1.5978369955 -1.0698988510 10.7684534299
C -2.9572491980 -1.0573404973 11.1470873773
C -3.3234725681 -1.1299168397 12.4858380692
C -2.3407016234 -1.2101884910 13.4797758450
C -0.9873937458 -1.2210258590 13.1214347515
C -0.6200511140 -1.1553759287 11.7826018103
C -0.0495327809 -1.6403821058 8.8700115406
C 0.3241370998 -1.5572541102 7.5323917600
H -2.2057493091 0.4080046115 6.3949207359
H -2.8519047651 0.2770829550 8.7522066579
H -3.7289061330 -1.0252922304 10.3837874519
H -4.3742451211 -1.1320977708 12.7592111217
H -2.6269883563 -1.2638419217 14.5257381358
H -0.2221628634 -1.2723143278 13.8899165101
H 0.4329544087 -1.1335468740 11.5189016639
H 0.5520775043 -2.2327789188 9.5518009610
H 1.2248681961 -2.0684514550 7.1993577881
C 0.8741650516 -5.8779418687 2.4842260044
C 0.6846520935 -6.7881480298 1.4338035015
C 0.8021692457 -8.1570177589 1.6454119326
C 1.1096950410 -8.6755758670 2.9201329309
C 1.2357196034 -10.1292493068 3.1456328803
C 1.7255983387 -10.9789163448 2.1299214157
C 1.8475616085 -12.3463141905 2.3437433228
C 1.4755301702 -12.9008768356 3.5747175915
C 0.9845035232 -12.0729419623 4.5918871770
C 0.8698378846 -10.7041905925 4.3822780776
C 1.2963110507 -7.7538992362 3.9695737006
C 1.1831746377 -6.3845453483 3.7532682758
H 0.4421963264 -6.4253605527 0.4373092764
H 0.6259585507 -8.8381048990 0.8190558984
H 2.0462249213 -10.5559553492 1.1827650021
H 2.2399507299 -12.9838337680 1.5573722710
H 1.5686549650 -13.9698291511 3.7406207398
H 0.6857444683 -12.5011598692 5.5437899513
H 0.4616705484 -10.0759304383 5.1681614773
H 1.5687294590 -8.1137664585 4.9564558683
H 1.3541725707 -5.7010589281 4.5824429194
O -2.3709598423 -0.4782470676 0.0431696991
C -2.7174602192 -1.0749319170 -1.2619972647
C -4.1396098298 -0.7040413002 -1.7111783259
C -4.4713275557 0.7961121965 -1.5326877534
C -4.1875572988 1.1180439717 -0.0865483538
C -3.2465137761 0.4756660998 0.5986372815
H -3.7985943155 1.3861055809 -2.1739448164
H -4.8480763948 -1.2852522608 -1.1130598446
H -4.2871008806 -1.0144322814 -2.7477053136
H -3.0404674754 0.6002935020 1.6544038772
H -4.8035663594 1.8393050061 0.4419107162
H -2.6975300037 -2.1575313109 -1.0692391115
N -0.4486949560 -0.3828140958 -1.8093465072
C -1.5864746248 -0.8298314335 -2.2454829759
C -1.7219240628 -1.3366361291 -3.6652002981
C -0.8685433292 -0.5202275865 -4.6616637980
C 0.4989687797 -0.3415401255 -4.0480624059
C 0.6485806771 -0.3012345181 -2.7179978429
H -1.3187724960 0.4811957685 -4.7661089199
H -1.3682204256 -2.3816750437 -3.6658066163
H -2.7609302281 -1.3676525678 -3.9955699299
H 1.6101535517 -0.1771266913 -2.2371184364
H 1.3651177227 -0.2205796861 -4.6918423282
C -0.8566383693 -1.1640956073 -6.0393073365
C -0.1410190292 -2.3455319711 -6.2846647543
C -0.1618283446 -2.9433107387 -7.5406095580
C -0.9005708930 -2.3858671927 -8.6033122909
C -0.9267278373 -3.0210393400 -9.9384045643
C 0.1999297877 -3.7067367218 -10.4372752266
C 0.1741071376 -4.2965982937 -11.6963684336
C -0.9799681821 -4.2214101481 -12.4841709207
C -2.1081011938 -3.5487007336 -12.0016738759
C -2.0811188537 -2.9534126138 -10.7453800343
C -1.6124605588 -1.1983748501 -8.3474126254
C -1.5891455524 -0.6005055871 -7.0910143041
H 0.4376457089 -2.8093251574 -5.4883160775
H 0.3808199020 -3.8705021704 -7.6953165758
H 1.1114748630 -3.7457637367 -9.8482581508
H 1.0551300287 -4.8087147693 -12.0713105677
H -1.0002305775 -4.6834013391 -13.4665693283
H -3.0094190563 -3.4965553856 -12.6048397782
H -2.9719877392 -2.4587207731 -10.3700155759
H -2.1637468620 -0.7210667155 -9.1510656361
H -2.1377091033 0.3258330308 -6.9343507246
C -5.9011769084 1.0980724584 -1.9521150626
C -6.9895358890 0.7118813908 -1.1560943781
C -8.2957340972 0.9605306895 -1.5634796739
C -8.5690528214 1.6020496317 -2.7882237350
C -9.9573506726 1.8608603522 -3.2234587533
C -10.9688892509 2.1468211867 -2.2824839803
C -12.2751822783 2.3869729234 -2.6927342224
C -12.6040636205 2.3405398783 -4.0525669105
C -11.6124708379 2.0568686882 -4.9989318400
C -10.3043041811 1.8237139543 -4.5904688876
C -7.4699309184 1.9858206366 -3.5809680685
C -6.1639032063 1.7394144559 -3.1692435829
H -6.8195958271 0.2040687791 -0.2089981258
H -9.1182502760 0.6261727851 -0.9394035878
H -10.7197097931 2.2144710512 -1.2277151089
H -13.0391635214 2.6179371689 -1.9566269278
H -13.6252760556 2.5246677634 -4.3721399096
H -11.8656126889 2.0102195174 -6.0537509795
H -9.5499434244 1.5754670048 -5.3311470566
H -7.6417738024 2.5134818935 -4.5136651566
H -5.3385127458 2.0667338704 -3.7983480051
