196
# extracted from Terachem optimization
Cr -0.4854629965 -0.2813071600 0.2880367993
O -0.4958793559 2.2063116529 0.2847040368
C 0.6953605560 2.5820539263 -0.4521488455
C 0.9227812459 4.0970162400 -0.4395968794
C 0.9303147783 4.7136005293 0.9766414708
C -0.2634060609 4.1530099392 1.7123801040
C -0.8907593652 3.0426837560 1.3282685128
H 1.8507174355 4.4156168001 1.5007742843
H 0.0983612338 4.5471614999 -1.0025998684
H 1.8352347992 4.3453653164 -0.9880780976
H -1.7971210128 2.6586720151 1.7800725443
H -0.6735613322 4.7043730523 2.5528692472
H 0.4729642572 2.2840812491 -1.4865467260
N 1.5420525881 0.4546920180 0.3269871387
C 1.8430401662 1.6767297623 0.0075320142
C 3.2689142886 2.1656720143 0.0684017829
C 4.3125741044 1.0857121191 -0.2749412909
C 3.8797412593 -0.2032032228 0.3872855100
C 2.5941831551 -0.4428996075 0.6744184608
H 5.2574317266 1.4039027766 0.1815879314
H 3.4126395641 3.0592334362 -0.5412003347
H 3.4313758344 2.4776153532 1.1131700051
H 2.2641601925 -1.3720221897 1.1201712993
H 4.6221282342 -0.9675027121 0.5963137358
C 4.5806755952 0.8575089096 -1.7635323903
C 3.7600028817 1.3608630611 -2.7812989558
C 4.0586867334 1.1340697068 -4.1259855258
C 5.1854397696 0.3886585645 -4.5082347794
C 5.5203899241 0.1701891839 -5.9366662479
C 4.5124200499 -0.0423057236 -6.8920917367
C 4.8312943385 -0.2421817848 -8.2339996986
C 6.1645105568 -0.2308749624 -8.6485548300
C 7.1759941404 -0.0192115654 -7.7098227087
C 6.8582453411 0.1775719839 -6.3672332716
C 6.0008829845 -0.1217670292 -3.4808953184
C 5.7079429372 0.1118457557 -2.1423718092
H 2.9013726001 1.9843189844 -2.5441870969
H 3.4359990017 1.5871652041 -4.8922335178
H 3.4718409894 -0.0776931859 -6.5791628175
H 4.0384475850 -0.4146731716 -8.9562998053
H 6.4130506540 -0.3847280223 -9.6945085423
H 8.2154106924 0.0020884814 -8.0240283945
H 7.6530443199 0.3717780014 -5.6526146121
H 6.8740988591 -0.7135876467 -3.7375801043
H 6.3740079565 -0.2848952908 -1.3789880239
C 0.9250435712 6.2351153121 0.9123951342
C -0.2393996225 6.9455464508 0.5911045175
C -0.2273481810 8.3348215664 0.5041792103
C 0.9482122567 9.0700494568 0.7378090988
C 0.9577366887 10.5515016527 0.6525601943
C -0.1415541283 11.3045633564 1.0986873735
C -0.1330123732 12.6960502266 1.0200230055
C 0.9744273242 13.3623860431 0.4920526066
C 2.0737472634 12.6270696373 0.0447082616
C 2.0660270102 11.2356064894 0.1252237088
C 2.1112915180 8.3503606733 1.0599824830
C 2.0993772591 6.9597534512 1.1440485614
H -1.1685273466 6.4105505338 0.4047020171
H -1.1384457909 8.8590927059 0.2318526653
H -0.9963332157 10.7987656551 1.5393895651
H -0.9884984951 13.2608688333 1.3796882464
H 0.9811694175 14.4467544907 0.4306265869
H 2.9364483449 13.1371942388 -0.3744844804
H 2.9160776136 10.6730838295 -0.2513483411
H 3.0287140661 8.8889878569 1.2769661580
H 3.0150422931 6.4352422532 1.4108861772
O -0.4291290108 -2.7320394671 0.4755041053
C -1.0230819622 -3.0749069456 1.7538214789
C -0.7564911619 -4.5378698777 2.1251246431
C 0.7474894615 -4.8827440111 2.1530409087
C 1.3541850498 -4.3263149642 0.8865761841
C 0.7620189736 -3.3862675547 0.1512652785
H 1.2128286497 -4.3858883877 3.0185714701
H -1.2439863979 -5.1570059274 1.3645509107
H -1.2433626992 -4.7799801289 3.0737908968
H 1.1463830444 -3.0090760567 -0.7896350188
H 2.2888592393 -4.7414440762 0.5222588299
H -2.1029829240 -2.9536106105 1.5929173989
N -0.3450225491 -0.8179468302 2.3547088041
C -0.6292088378 -2.0112873658 2.7805842601
C -0.7496472306 -2.2952408025 4.2595189436
C 0.2228253989 -1.4615985181 5.1237935264
C 0.2439162955 -0.0523629167 4.5880900944
C -0.0393808715 0.2047915137 3.3047786501
H 1.2394165203 -1.8716838683 5.0022224110
H -1.7852700240 -2.0401273973 4.5438919077
H -0.6292509682 -3.3568305012 4.4766653415
H 0.0086786029 1.2057983652 2.8922870779
H 0.5362183577 0.7588576900 5.2485581665
C -0.1355606252 -1.5588494873 6.5987598508
C -1.2394267792 -0.8728592186 7.1237493545
C -1.5766973892 -0.9896633183 8.4692093100
C -0.8298468829 -1.8023777990 9.3411447343
C -1.1919232177 -1.9242383336 10.7747747539
C -2.5379951050 -1.9396867536 11.1779652899
C -2.8788309760 -2.0515076420 12.5246911247
C -1.8798680969 -2.1484171541 13.4951491709
C -0.5381613070 -2.1345166722 13.1091920570
C -0.1972029896 -2.0246277940 11.7623019626
C 0.2729484110 -2.4889721570 8.8053428325
C 0.6151241720 -2.3656326805 7.4605258032
H -1.8332116118 -0.2223314674 6.4839767333
H -2.4149583845 -0.4203400574 8.8591853707
H -3.3242586310 -1.8935349464 10.4293613997
H -3.9254055963 -2.0714920424 12.8151275635
H -2.1447115248 -2.2344405830 14.5449175930
H 0.2450686015 -2.2011477998 13.8589129505
H 0.8504589095 -1.9861162136 11.4770273887
H 0.8577504381 -3.1429333731 9.4449424117
H 1.4760029820 -2.9106863898 7.0782953423
C 0.9740064854 -6.3783812208 2.3201384532
C 0.7793763418 -7.2671164897 1.2545320157
C 0.9537881169 -8.6374854880 1.4265184316
C 1.3313470169 -9.1727593707 2.6708721485
C 1.5194045868 -10.6334588747 2.8518965498
C 2.0880115540 -11.4171602899 1.8335751782
C 2.2643816936 -12.7891841452 2.0037614101
C 1.8736914729 -13.4049351788 3.1943939413
C 1.3066970944 -12.6385539868 4.2143410296
C 1.1320873799 -11.2661428457 4.0453150402
C 1.5267283177 -8.2748165462 3.7340079369
C 1.3500474170 -6.9041143552 3.5612660829
H 0.4862287256 -6.8873181498 0.2778255054
H 0.7735525766 -9.3072486816 0.5910115324
H 2.4230786304 -10.9441087407 0.9144687546
H 2.7150076969 -13.3767626597 1.2088704788
H 2.0106252166 -14.4742142667 3.3266384304
H 0.9923451184 -13.1109472796 5.1407032063
H 0.6637452469 -10.6849923518 4.8350271030
H 1.8491019632 -8.6528779759 4.6993953613
H 1.5241694386 -6.2353465653 4.4023903593
O -2.5588638655 -0.7585816419 0.1185911020
C -2.9603184934 -1.2360752078 -1.2157985310
C -4.3185072348 -0.6606110073 -1.6509175523
C -4.4505439968 0.8568420618 -1.3820413377
C -4.1617200105 1.0551008045 0.0861790158
C -3.3209184644 0.2581243686 0.7375183586
H -3.6844076378 1.3859964962 -1.9692763880
H -5.1074156913 -1.1804246648 -1.0993113545
H -4.4822818430 -0.8803766251 -2.7084145710
H -3.1125148422 0.2772850628 1.8012572005
H -4.6966296926 1.8138988132 0.6487757887
H -3.0635528548 -2.3231493214 -1.0954499787
N -0.6990292501 -0.5220525022 -1.7937287963
C -1.8209135452 -1.0343797487 -2.1937562074
C -1.9547386825 -1.6022827108 -3.5877222087
C -1.1591305393 -0.7909894951 -4.6343994656
C 0.1999203099 -0.4927762446 -4.0488445014
C 0.3769727494 -0.4033678962 -2.7246638120
H -1.6702970987 0.1720020293 -4.7997806528
H -1.5407883011 -2.6241701151 -3.5467471578
H -2.9975653575 -1.7089085562 -3.8913368165
H 1.3377063607 -0.1881976670 -2.2740369077
H 1.0415669473 -0.3230344258 -4.7137159791
C -1.1050436814 -1.5142759193 -5.9720649437
C -0.3194268236 -2.6621509791 -6.1466029905
C -0.2934142375 -3.3287582003 -7.3685153278
C -1.0559946395 -2.8791298281 -8.4615935240
C -1.0261505570 -3.5912091015 -9.7629306723
C -0.9453750445 -4.9930989149 -9.8152477058
C -0.9166602451 -5.6613559795 -11.0380232460
C -0.9649409923 -4.9413160393 -12.2332489299
C -1.0444047132 -3.5478764949 -12.1961667663
C -1.0759633534 -2.8794798037 -10.9734680996
C -1.8414192079 -1.7285355109 -8.2768061262
C -1.8624587578 -1.0576342628 -7.0560707524
H 0.2965880583 -3.0336775847 -5.3296939351
H 0.3475618397 -4.1969967331 -7.4877610117
H -0.9353552008 -5.5660760595 -8.8920502165
H -0.8644882184 -6.7461909100 -11.0573856017
H -0.9417908143 -5.4619571117 -13.1861292695
H -1.0744146353 -2.9793758416 -13.1212896757
H -1.1115212206 -1.7936523528 -10.9578010205
H -2.4592191207 -1.3664182791 -9.0928781927
H -2.4822328495 -0.1697313703 -6.9476296640
C -5.8117175274 1.3727231163 -1.8169411274
C -6.9715707657 1.0744790340 -1.0888311668
C -8.2199080945 1.5094217787 -1.5257936668
C -8.3579365500 2.2615197338 -2.7060016634
C -9.6889936417 2.7160959715 -3.1777088054
C -10.6757766207 3.1293650640 -2.2666578607
C -11.9267195065 3.5516111293 -2.7132110231
C -12.2163121525 3.5665361961 -4.0789858963
C -11.2455958251 3.1578562013 -4.9954787437
C -9.9938376243 2.7382121556 -4.5493726092
C -7.1887856549 2.5627843440 -3.4257647295
C -5.9408990095 2.1237596402 -2.9906306542
H -6.9066917165 0.4877721751 -0.1744086886
H -9.1060190418 1.2413058743 -0.9587257284
H -10.4523769243 3.1484704926 -1.2034456640
H -12.6736605076 3.8765223673 -1.9945051892
H -13.1917739782 3.8938844580 -4.4266585567
H -11.4661381062 3.1576299431 -6.0591649880
H -9.2564674261 2.3941984918 -5.2696199094
H -7.2575224590 3.1713760515 -4.3221566702
H -5.0543918546 2.3836327789 -3.5663635252
