106
# extracted from Terachem optimization
Cr -0.0387929524 0.0108706648 0.4277543577
N 0.2216781789 2.0494352675 0.2041859178
C 1.5070654576 2.3071545511 0.0495262085
O 1.7266780028 3.5321545971 -0.4154209184
C 0.4862921815 4.0993307630 -0.5957242432
C -0.4492707644 3.1938059087 -0.1870134193
H -1.5228434496 3.2924974989 -0.1560542459
N 2.0317772652 0.1077006342 0.5533682353
C 2.5271025618 1.3074031599 0.3111300570
S 4.1805947017 1.7810103094 0.2166358008
C 5.0862870553 0.2859049191 0.9082449861
C 4.2277902665 -0.9457959664 0.8277137166
C 2.8924865238 -0.9956020037 0.7179887008
H 5.3244103712 0.5424865387 1.9453918646
H 2.3794001729 -1.9481013191 0.7147675800
H 4.7645078579 -1.8875217029 0.8884368595
C 6.4082505776 0.1931733712 0.1139845534
O 6.0516877750 -0.2434738952 -1.1727848193
C 7.5340344673 -0.6346947596 0.7963897923
N 7.7828376708 -0.2035090509 2.1183328727
Cl 7.2201476237 -2.4791278312 0.6186928741
H 6.8419892166 1.2074987515 0.0939347555
H 6.8453700581 -0.3167799171 -1.7290442669
H 8.4371635691 -0.4900618956 0.2002696810
H 8.7250191408 -0.4249967499 2.4287305837
H 7.1314525121 -0.5824138327 2.8004433400
C 0.3957536259 5.4318074604 -1.2692913584
O -0.6109773209 6.1410449143 -0.5973368290
C 0.1269210761 5.2296897223 -2.7942453801
N 1.0672978721 4.2793965048 -3.3408708480
Cl -1.5525024040 4.5839057550 -3.0595054841
H 1.3807107313 5.9224317081 -1.1923422166
H -0.7487067812 7.0030987579 -1.0254293838
H 0.1060716687 6.2193347523 -3.2712186530
H 0.8663425922 4.0797031227 -4.3276043394
H 2.0144368997 4.6598554687 -3.2984872475
N -0.2244130098 -2.0314355941 0.6529334257
C -0.3484629588 -2.3410324753 1.9314134813
O -0.3703190477 -3.6511764697 2.1366521708
C -0.2460706799 -4.2400176325 0.8991529910
C -0.1652237013 -3.2353132507 -0.0266111443
H -0.0490588503 -3.3231564273 -1.0945223957
N -0.3082363355 -0.0968837175 2.4959463305
C -0.4234779727 -1.3243427323 2.9650523296
S -0.7079958499 -1.8319705752 4.5857160048
C -0.5263466017 -0.2389998201 5.5676596670
C -0.6416971113 0.9676680481 4.6768495823
C -0.4969156020 1.0104931054 3.3444959919
H 0.4621964429 -0.2943646074 6.0347472857
H -0.5419083156 1.9541520067 2.8165381551
H -0.8435951041 1.9022832581 5.1916020696
C -1.5920121744 -0.3200642163 6.6840592254
O -2.8347326956 -0.1759668531 6.0437736836
C -1.3674050067 0.6384648849 7.8871995015
N -0.0598781573 0.5438593213 8.4090435960
Cl -1.9236311954 2.3872628213 7.4636440648
H -1.4876914622 -1.3150917480 7.1490086736
H -3.5477491932 -0.2194455254 6.7026614584
H -2.0799005377 0.3493005192 8.6620541508
H -0.0042494892 0.8374124971 9.3804835493
H 0.6321573066 1.0683830596 7.8810433237
C -0.1863843868 -5.7446845573 0.8554657743
O 0.1835482830 -6.1655303606 2.1409270567
C 0.7788194137 -6.2404039393 -0.2522928043
N 0.2942125827 -5.8237355522 -1.5557739622
Cl 2.4412053249 -5.5608289209 -0.0066832414
H -1.1887109171 -6.1195512437 0.5796723812
H 0.0083265157 -7.1161584987 2.2348921721
H 0.9075114646 -7.3225942790 -0.1217237756
H 0.9856989416 -6.0561247035 -2.2678718565
H -0.5473102810 -6.3542256697 -1.7900397928
N -2.0820047766 0.2661110951 0.1358654683
C -2.3297789194 0.3378507243 -1.1612467815
O -3.5870410018 0.6770796775 -1.4202907237
C -4.2013676529 0.8405616277 -0.2020507777
C -3.2696243694 0.5798835325 0.7684670393
H -3.3896728244 0.6347345240 1.8385619344
N -0.1067659147 -0.1163193028 -1.6438558812
C -1.2946305442 0.1552143968 -2.1567418627
S -1.6629211606 0.2954220544 -3.8439940676
C 0.0346896472 0.8131036994 -4.4279241665
C 1.0338716379 -0.1154870312 -3.7853643559
C 0.9671286357 -0.4551425163 -2.4869926985
H 0.1776804747 1.8447776137 -4.0873347210
H 1.7470365878 -1.0387223636 -2.0116532531
H 1.8496096738 -0.4906107005 -4.3905315280
C 0.0292976287 0.7858740244 -5.9716266537
O 0.3110563874 -0.5372601095 -6.3501830218
C 0.9927696605 1.8195548683 -6.6058959050
N 0.5646627483 3.1785615514 -6.3161370796
Cl 2.7003578198 1.6363749050 -6.0098246519
H -0.9720098567 1.0955684914 -6.3215889689
H 0.1866050839 -0.6494504319 -7.3072249698
H 1.0627565491 1.5894879792 -7.6767424733
H 1.1602749853 3.8300063209 -6.8279387202
H -0.3841993169 3.3248863916 -6.6668380309
C -5.6349824888 1.3022529830 -0.2135246978
O -5.8739824851 1.8318208424 -1.4894002124
C -5.9045235804 2.3170160236 0.9289960408
N -5.7192485694 1.6725607922 2.2149694513
Cl -4.7705648257 3.7286195355 0.8125514257
H -6.2822020850 0.4306492127 -0.0081844205
H -6.8305221034 1.9319228041 -1.6231989720
H -6.8966136669 2.7552289737 0.7589198799
H -5.7716452854 2.3657943986 2.9602015317
H -6.4820538884 1.0125443674 2.3779608420
