127
# extracted from Terachem optimization
Cr 0.2168023873 0.0511781401 0.0533604066
N 0.7217527053 2.0410236770 0.3741938468
C 1.9873733400 2.3411568765 0.1641252804
N 2.4753114489 3.5834195518 0.1958984454
C 1.7102308374 4.7795535288 0.6262947314
C 0.2579918910 4.3978530644 0.7120991350
C -0.1550283950 3.1290831255 0.6058556250
H 2.0930651604 5.0939931830 1.6082307963
H 3.4238864488 3.7876325801 -0.1021513742
H -1.1994890244 2.8655404404 0.7049155636
H -0.4454212976 5.2058071148 0.8758397320
N 2.2434066086 0.0336400900 -0.3182312847
C 2.8754790987 1.1687669875 -0.1127493510
N 4.1988596803 1.3177304916 -0.1009873578
C 5.1446791570 0.2482216547 -0.4612117071
C 4.3973539706 -0.8260408812 -1.2454018583
C 3.0725750789 -1.1631175322 -0.5483547655
H 5.5631916058 -0.1711143662 0.4585560993
H 4.2062690888 -0.4707176753 -2.2633663520
H 5.0121319388 -1.7278378635 -1.3106109135
H 4.6488317129 2.1944278270 0.1409458501
H 3.2615394916 -1.6496427111 0.4187073824
H 2.4930666088 -1.8664705095 -1.1501254251
C 6.3249580792 0.9137966720 -1.2080216672
O 5.8304294381 1.4762695324 -2.3971016095
O 6.7477237808 1.9229453403 -0.2922260506
C 7.4635248562 -0.0894660608 -1.4721607539
O 7.8178371397 -0.8023293317 -0.3113383042
H 6.5390700637 1.5220690668 -3.0620175161
H 7.3739449105 2.5172203423 -0.7405392616
H 7.1377343471 -0.8270503388 -2.2118403895
H 8.3161508815 0.4599648632 -1.9069503706
H 8.3019527723 -0.2044282046 0.2818008612
C 2.0097425720 5.9553826765 -0.3577558923
O 3.4167884867 5.9093880198 -0.4943416417
O 1.3623594516 5.7971222305 -1.5965143888
C 1.5395871043 7.3124267605 0.1980641416
O 0.1345303751 7.4015583536 0.2920942826
H 3.7119062141 6.6734204457 -1.0201575603
H 1.7798812535 5.0576454520 -2.0686016465
H 1.9433672811 7.4557470456 1.2040085107
H 1.9578587829 8.0980473377 -0.4490786592
H -0.2158821853 7.4906431067 -0.6094240918
N -0.0267484803 -2.0060814320 -0.0031248424
C 0.1041610704 -2.6445854952 1.1434798580
N -0.0435174980 -3.9643251109 1.2724999236
C -0.1285117461 -4.9117111085 0.1337323159
C -0.4931199660 -4.1213360880 -1.0937802290
C -0.4134634634 -2.7854063749 -1.1189020668
H 0.8516381497 -5.3978327740 0.0173372591
H -0.0527147342 -4.4211392727 2.1790975697
H -0.6554653146 -2.2132967489 -2.0044441107
H -0.8061695900 -4.6857195165 -1.9638449931
N 0.4560147012 -0.4845151546 2.0394876835
C 0.4180111529 -1.7696808851 2.3175134647
N 0.6488832888 -2.3007380391 3.5177721055
C 0.7859322311 -1.5082878279 4.7537952449
C 0.2631529787 -0.0982635834 4.4969390126
C 0.7748929980 0.4283919013 3.1520953202
H 1.8419975365 -1.4840040258 5.0389706041
H -0.8317569856 -0.1126680286 4.4981556063
H 0.5941463272 0.5700610836 5.2964919450
H 0.6358153207 -3.3010714146 3.6885258818
H 1.8631299115 0.5772670612 3.1844472222
H 0.3236777594 1.3977889878 2.9350035754
C 0.0461148176 -2.2782454573 5.8726380753
O -1.3235428869 -2.3241976597 5.5541904844
O 0.6244365796 -3.5818553507 5.8058572358
C 0.2919726917 -1.6496180737 7.2553272157
O 1.6603375660 -1.4647886938 7.5225187492
H -1.8535165585 -2.3329973699 6.3698432311
H 0.0837576715 -4.1906916814 6.3380262890
H -0.1771695956 -0.6618289255 7.2997394189
H -0.2033224663 -2.2835715342 8.0113296563
H 2.0629007196 -2.3322544733 7.6928247577
C -1.1415868064 -6.0421618757 0.4964029836
O -0.7874298549 -6.3741869050 1.8279925034
O -2.4781475530 -5.6245488815 0.4005631264
C -1.0026404804 -7.2625158529 -0.4296121915
O -1.3597171302 -6.9773572216 -1.7665675739
H -1.3515769661 -7.1077974506 2.1290015481
H -2.6289723051 -4.9028951143 1.0343883291
H 0.0390771291 -7.5943198445 -0.4333451654
H -1.6128895139 -8.0735798903 -0.0060242140
H -2.3290109325 -6.9426044341 -1.8133529571
N -1.8348591088 0.3779864869 0.2022350138
C -2.4630059131 0.6325306916 -0.9282348977
N -3.7862505974 0.7805200425 -1.0250034444
C -4.6944766228 0.9142609551 0.1398371062
C -3.9711957660 0.3857127118 1.3493271168
C -2.6504845236 0.1712230639 1.3408249168
H -4.9490339326 1.9779203442 0.2590139287
H -4.2524645543 0.8638440740 -1.9228400994
H -2.1232723674 -0.1906131412 2.2130831343
H -4.5700057897 0.2001025810 2.2332588993
N -0.3279845120 0.3714579280 -1.9132968472
C -1.5758278508 0.7292230741 -2.1297058378
N -2.0590297337 1.1685760341 -3.2896219765
C -1.2747531759 1.2237890509 -4.5343457304
C -0.0822655249 0.2802350468 -4.3972281741
C 0.6078629720 0.4893547728 -3.0443573852
H -0.9375489183 2.2540974602 -4.6892209012
H -0.4285591049 -0.7543152808 -4.4875452216
H 0.6367545424 0.4656202755 -5.2001872545
H -3.0183566717 1.4800779709 -3.4054839555
H 1.0850203116 1.4782455139 -3.0039012022
H 1.3982795020 -0.2510776852 -2.9058074311
C -2.2305735752 0.9053621274 -5.7093586298
O -2.6036580459 -0.4459373906 -5.6409094710
O -3.3551126250 1.7535286384 -5.4591948197
C -1.5936236308 1.2656046616 -7.0639035299
O -1.1267090591 2.5928041394 -7.0902646724
H -2.7507839770 -0.7983614641 -6.5356038942
H -4.1012111396 1.4431833644 -6.0007236785
H -0.7313742533 0.6190577261 -7.2546250404
H -2.3374446416 1.0663701689 -7.8544999899
H -1.8967956294 3.1850814202 -7.1030739750
C -6.0299066483 0.1737728365 -0.1753837507
O -6.3360235530 0.6057670569 -1.4889177084
O -5.9058985004 -1.2238993559 -0.1036947557
C -7.1514987583 0.5535846563 0.8092406961
O -6.9152258802 0.0772542210 2.1170505517
H -7.2022484502 0.2448295009 -1.7471098259
H -5.3068359839 -1.5200857093 -0.8094168875
H -7.2304062191 1.6425266051 0.8676176237
H -8.0971140003 0.1691710288 0.3987212915
H -7.0741001995 -0.8808775064 2.1141034605
