175
# extracted from Terachem optimization
Cr 0.0992465731 -0.0732867003 -0.1884339919
N 0.6255662337 2.4308440091 0.0980384917
C 1.9507496863 2.4104416223 0.2017605871
N 2.4472109377 3.6766641951 0.3138062391
C 1.3934743683 4.5606553258 0.2825833444
C 0.2692889700 3.7455944980 0.1457190318
H -0.7617932833 4.0563701766 0.0578564153
H 3.4238032525 3.9075757724 0.4439625190
N 2.2297418403 0.0383249237 0.0344133693
C 2.7718245850 1.2077322182 0.1866322356
O 4.0686303636 1.4911576172 0.3388153493
C 5.0749156107 0.4036695936 0.3329582059
C 4.5219368267 -0.7634899862 -0.4804321602
C 3.1233824906 -1.1322801482 0.0124361239
H 5.1804987050 0.1055263952 1.3818500565
H 4.4910983068 -0.4886124443 -1.5414382257
H 5.2025895569 -1.6153022618 -0.3858842774
H 3.1664117653 -1.5597605379 1.0236337150
H 2.6650299944 -1.8928751321 -0.6246243069
C 6.3711173754 0.9822222422 -0.1649167295
C 6.4447215560 1.6485465446 -1.3962614666
C 7.6580615250 2.1497875936 -1.8564585658
C 8.8404910316 1.9937833387 -1.1123994335
C 10.1707470991 2.5408828002 -1.6095584241
C 10.5764124772 1.9321037868 -2.9652920123
C 10.1602357436 4.0808276370 -1.6742171766
C 8.7542257611 1.3249529111 0.1144362164
C 7.5378780317 0.8324478004 0.5888690487
H 5.5458248930 1.7882155358 -1.9927602507
H 7.6866915633 2.6670634415 -2.8115305728
H 10.9322629190 2.2466741246 -0.8756451079
H 9.8763212771 2.2165762365 -3.7597465812
H 11.5689444979 2.2913897916 -3.2573235322
H 10.6104858013 0.8383929529 -2.9198842054
H 9.9205525283 4.5207531419 -0.7000745108
H 11.1423758752 4.4542718029 -1.9833747598
H 9.4233867976 4.4445839512 -2.4004526737
H 9.6509246215 1.1940190692 0.7146317802
H 7.5035478936 0.3276250478 1.5520027433
C 1.5446751269 6.0105909851 0.3657409777
C 2.7536963299 6.6431708440 0.0246104986
C 2.8795610272 8.0248377164 0.1061972624
C 1.8078636940 8.8326580045 0.5209722503
C 1.9410088986 10.3454639347 0.6076731099
C 2.9653480133 10.7623758993 1.6813858345
C 2.2844098323 10.9682110150 -0.7596391704
C 0.6048829944 8.1945889174 0.8560582147
C 0.4699933224 6.8114655189 0.7856270599
H 3.5978210988 6.0604240228 -0.3376045345
H 3.8255872453 8.4823190866 -0.1680996222
H 0.9622958301 10.7369849803 0.9139721706
H 3.9732303776 10.4114269525 1.4299913767
H 3.0052935800 11.8539182385 1.7627610632
H 2.7027658043 10.3573935633 2.6645266924
H 1.5466048597 10.6946443037 -1.5214070905
H 2.3056338292 12.0605361627 -0.6832958919
H 3.2700615864 10.6418656524 -1.1108787496
H -0.2399651105 8.7933513129 1.1863895680
H -0.4692154428 6.3496109295 1.0772864990
N -0.0343388517 -2.5248416456 0.1487881142
C -0.1964915502 -2.6448590188 1.4640003412
N -0.2735989185 -3.9558014911 1.8245963577
C -0.1626667333 -4.7272629757 0.6892896181
C -0.0111297006 -3.7990700116 -0.3397545334
H 0.1302660223 -4.0018049541 -1.3914362135
H -0.4411866317 -4.2885117983 2.7656250580
N -0.2051399367 -0.3086518968 1.9391990994
C -0.2810282841 -1.5219452828 2.3870575086
O -0.4437744950 -1.9189462418 3.6534873092
C -0.4561040007 -0.8989475246 4.7243186213
C -1.0970227890 0.3662155352 4.1615059188
C -0.3634941515 0.8011110889 2.8915973076
H 0.5971452602 -0.7064737061 4.9593968108
H -2.1550764842 0.1700825798 3.9500646922
H -1.0580710574 1.1568089709 4.9170430353
H 0.6322571641 1.1938021824 3.1370575767
H -0.8963670092 1.6070833377 2.3797042608
C -1.1401162120 -1.5009300359 5.9207897846
C -2.4288105917 -2.0460749808 5.8264021179
C -3.0537852682 -2.5777946343 6.9498665109
C -2.4235992239 -2.5727412336 8.2060818274
C -3.0922854471 -3.1723469596 9.4346883363
C -4.4656750371 -2.5387534433 9.7249653350
C -3.2030194104 -4.7057089044 9.3165488226
C -1.1398544516 -2.0198579449 8.2890341645
C -0.5010751408 -1.4986287619 7.1635389644
H -2.9407154859 -2.0713649396 4.8671436176
H -4.0478161833 -3.0042706938 6.8493424789
H -2.4415473770 -2.9544351597 10.2916007894
H -5.1844419488 -2.7480060225 8.9238961994
H -4.8795178678 -2.9481475497 10.6525640522
H -4.3909268685 -1.4517890739 9.8369767512
H -2.2221969638 -5.1661165327 9.1555765179
H -3.6302303019 -5.1278532519 10.2326793881
H -3.8536271930 -4.9946861682 8.4823062265
H -0.6264585531 -2.0056468911 9.2469438563
H 0.5006956465 -1.0852104323 7.2586200110
C -0.1956900707 -6.1869689175 0.6919803309
C 0.1273278930 -6.9252429542 1.8445729190
C 0.0907972501 -8.3146113495 1.8307936985
C -0.2588623484 -9.0246947010 0.6703595423
C -0.3031091767 -10.5450063815 0.6528111889
C 1.0654045177 -11.1638143964 0.9976814051
C -1.4078650802 -11.0866571046 1.5816237711
C -0.5735272811 -8.2808992999 -0.4761061163
C -0.5484878837 -6.8895307609 -0.4716102873
H 0.4408706454 -6.4177569152 2.7542545195
H 0.3486582008 -8.8544690317 2.7372701403
H -0.5547773040 -10.8476474687 -0.3720173416
H 1.3647734418 -10.9256202375 2.0248488060
H 1.0184176739 -12.2546050391 0.9121595664
H 1.8502010004 -10.8030871033 0.3243125769
H -2.3903821936 -10.6843356447 1.3126006467
H -1.4572551059 -12.1787921546 1.5148623385
H -1.2119086647 -10.8266126752 2.6285277963
H -0.8533067446 -8.8023521668 -1.3877838367
H -0.8256203970 -6.3461714848 -1.3707587922
N -2.0231478197 0.1962588197 -0.4792880741
C -2.2707356356 0.4048695383 -1.7702786647
N -3.5978239776 0.5893452940 -1.9757021122
C -4.2463832848 0.4976915861 -0.7595994294
C -3.2305896754 0.2485902471 0.1577293033
H -3.3205965534 0.0832498998 1.2202021496
H -4.0246215236 0.8038627441 -2.8684722250
N 0.0019994679 0.2011155805 -2.3227181920
C -1.2003329980 0.4224827079 -2.7546231526
O -1.6068886780 0.6752418906 -3.9945380501
C -0.5764890118 0.8172122686 -5.0598191026
C 0.5967193312 -0.0976706005 -4.7162944922
C 1.0989038314 0.1912510528 -3.2995577698
H -0.2590702008 1.8643618945 -5.0039890626
H 0.2838510775 -1.1444912276 -4.8007271364
H 1.3956458603 0.0621180732 -5.4468619032
H 1.6087864596 1.1632071214 -3.2558823015
H 1.8245350140 -0.5627544486 -2.9804698436
C -1.2434599776 0.5617429548 -6.3813616478
C -1.8113336313 -0.6837659426 -6.6889063481
C -2.3971670898 -0.9047614412 -7.9309855798
C -2.4288200211 0.1018031630 -8.9120137182
C -3.0540264281 -0.1384291778 -10.2785317794
C -2.3145790160 -1.2441396522 -11.0562851301
C -4.5605044953 -0.4444786445 -10.1719969081
C -1.8620013794 1.3414820722 -8.5926328194
C -1.2832120918 1.5736010528 -7.3448466579
H -1.8054318056 -1.4843839342 -5.9527867798
H -2.8326533460 -1.8770111377 -8.1438130069
H -2.9454671660 0.7940190209 -10.8475431843
H -2.4139266235 -2.2174634681 -10.5614003426
H -2.7313320091 -1.3417515328 -12.0644904872
H -1.2465809306 -1.0205375953 -11.1502378923
H -5.0948706422 0.3551458041 -9.6476133773
H -4.9985679140 -0.5469945286 -11.1706511409
H -4.7408295432 -1.3817056962 -9.6324304919
H -1.8760700457 2.1401896614 -9.3296834540
H -0.8557093540 2.5495515361 -7.1251679146
C -5.6904256019 0.6400315018 -0.5975269492
C -6.5783707498 0.3478556641 -1.6482965019
C -7.9503461024 0.4882286630 -1.4750134381
C -8.4917969735 0.9186552196 -0.2522681530
C -9.9929448615 1.0644503662 -0.0560911239
C -10.6072553521 2.0736585492 -1.0451343783
C -10.7044176383 -0.3005301833 -0.1372789731
C -7.5987715291 1.2025684055 0.7912295728
C -6.2234551846 1.0703151404 0.6282275565
H -6.2026642036 -0.0228473813 -2.5995831025
H -8.6119241229 0.2487367179 -2.3023581342
H -10.1468421403 1.4594317348 0.9566363993
H -10.5221693096 1.7256561500 -2.0812480079
H -11.6723970891 2.2108538883 -0.8305349037
H -10.1182047316 3.0511717930 -0.9761184774
H -10.3000642817 -1.0068451013 0.5957131643
H -11.7753996946 -0.1823707805 0.0593101494
H -10.5967784897 -0.7481797111 -1.1321980435
H -7.9891277323 1.5435477959 1.7465727401
H -5.5585050569 1.3268948179 1.4485856497
