109
# extracted from Terachem optimization
Cr -0.0203185307 -0.0915456641 0.2731543488
O 0.1686090444 2.0041446550 0.3553861465
C 1.4358534912 2.5046932076 -0.1649545266
O 1.6857726797 3.7220708683 0.4881172551
C 0.7854842081 3.8140465321 1.5553982304
C -0.0928204136 2.8116984286 1.4929664920
H -0.9011364586 2.5287665784 2.1378945686
H 1.3337783381 2.6503376547 -1.2443366244
O 2.0165443059 0.1599919632 -0.2620127887
C 2.5320961328 1.4687574359 0.1060384049
O 2.8871626438 1.3568663225 1.4621993126
C 3.2330737783 0.0100443334 1.6352019543
C 2.7495564297 -0.7096158647 0.6119188169
H 2.7658867712 -1.7565735735 0.3703951116
H 3.4234404647 1.6629808703 -0.5069213614
C 3.9787669651 -0.3612268350 2.8268629599
C 4.5417642452 0.5756113146 3.6041444493
C 4.0417931506 -1.8457692855 3.1794989257
N 2.7534028496 -2.2794038431 3.6980073596
O 4.2876784171 -2.6608868196 2.0372927234
H 5.0778356571 0.3004336387 4.5070131012
H 4.4743933400 1.6331486063 3.3737497365
H 4.8671399815 -1.9797876444 3.8988360927
H 2.8475892561 -3.2488790228 4.0019794889
H 2.5316065080 -1.7149867785 4.5213577494
H 5.2426403913 -2.6563668386 1.8614818359
C 0.9161812269 4.9296170158 2.4804148515
C 1.9802821973 5.7448501624 2.4273005698
C -0.2330257079 5.1770398435 3.4547839727
N -1.4776237134 5.6463808491 2.8750326290
O -0.4976169570 3.9504914783 4.1435733938
H 2.0794804972 6.5794970175 3.1146868977
H 2.7738699880 5.6100097842 1.7006532877
H 0.0975936522 5.9469983331 4.1636694707
H -1.4701180388 6.6521017846 2.7271669460
H -1.7034406106 5.1915482865 1.9919841010
H -1.3779040937 4.0903492293 4.5368471655
O -0.0928326370 -2.1848212064 0.6143594106
C -0.4924033885 -2.5654215219 1.9672914559
O -1.5426165868 -3.4887832288 1.7898843593
C -1.3698568199 -4.0317358278 0.5063039276
C -0.5115495615 -3.2811641165 -0.1844216187
H -0.1417019322 -3.3206622484 -1.1946223665
H 0.3777133767 -3.0146784700 2.4629327721
O -0.1407505697 -0.2060072839 2.3380631302
C -0.9942498032 -1.3216261064 2.7193614603
O -0.8803164150 -1.4521520932 4.1067123059
C -0.0664063789 -0.4084548769 4.5725002697
C 0.3743336098 0.3278475005 3.5499346829
H 1.0210633453 1.1825130459 3.4790641687
H -2.0285544340 -1.0964434540 2.4325600372
C 0.1168179132 -0.2993390744 6.0145065858
C -0.7156377742 -0.9191149364 6.8653942332
C 1.3436442977 0.4497499351 6.5207154756
N 1.5836454359 1.6692199897 5.7811177990
O 2.5217462168 -0.3461432066 6.3174029051
H -0.5770232983 -0.8375626181 7.9395634762
H -1.5516045394 -1.5191377471 6.5230872008
H 1.2154389028 0.6004832954 7.6057536316
H 2.3846015171 2.1546535768 6.1798479077
H 0.7849075999 2.3013301363 5.8062620951
H 2.5861534571 -0.9634037248 7.0648385453
C -2.2082070659 -5.1695005977 0.1184180582
C -1.6775522953 -6.2681650044 -0.4295157508
C -3.7123592170 -4.9834165743 0.3180655249
N -4.1399387418 -3.7734916933 -0.4145873997
O -4.0834873779 -4.8680492985 1.6670181207
H -2.3091914498 -7.0853584841 -0.7666051873
H -0.6056299009 -6.3983918992 -0.5441198866
H -4.2166292666 -5.8927339387 -0.0315623260
H -5.1146026765 -3.6036349205 -0.1605649518
H -4.1417871478 -3.9754155521 -1.4162242354
H -3.5912226329 -4.1271943223 2.0587397400
O -2.0504587813 0.0433415503 0.0934307060
C -2.6443117095 -0.5754749946 -1.0972892721
O -3.8302775874 0.1296818299 -1.3596030344
C -3.9203345326 1.1773735711 -0.4403052163
C -2.9109149723 1.1232533949 0.4265744359
H -2.6874296824 1.7117509985 1.2946880681
H -2.8667103437 -1.6238299683 -0.8619101077
O -0.2724518464 -0.5111951435 -1.8059769147
C -1.6556344551 -0.4496424161 -2.2775373538
O -1.7741482209 0.7842141314 -2.9326295890
C -0.4900562951 1.1020338918 -3.3778935883
C 0.4026499558 0.3360532331 -2.7341292651
H 1.4760048299 0.3149903432 -2.7027428665
H -1.7892097483 -1.2733910834 -2.9933086326
C -0.3551388127 2.1460656916 -4.3870591293
C -1.4422578982 2.7638757230 -4.8735285734
C 1.0465725573 2.4755044354 -4.8936461969
N 1.9088568804 2.8780555270 -3.7654918552
O 1.6505223690 1.4094866008 -5.5859530098
H -1.3501259184 3.5381532642 -5.6289053926
H -2.4445907393 2.5103102963 -4.5459435754
H 0.9509290484 3.2619153114 -5.6518347398
H 2.8502744997 3.0031391865 -4.1416381623
H 1.6127628328 3.7993738640 -3.4373734579
H 1.6744859379 0.6251603278 -5.0143821812
C -5.0201496661 2.1235797401 -0.5563656107
C -6.0151182351 1.9364762809 -1.4364226651
C -4.9490377557 3.3711214922 0.3240597809
N -4.8110271469 3.0132465760 1.7260987181
O -3.7857135227 4.1496472225 0.0424508940
H -6.8233554893 2.6564083071 -1.5266139273
H -6.0571530268 1.0678773476 -2.0847730354
H -5.8466550307 3.9748502109 0.1070193641
H -4.7964410331 3.8698978243 2.2787553312
H -5.6163120888 2.4674346680 2.0292311482
H -3.9519830095 4.6392699180 -0.7791001584
