139
# extracted from Terachem optimization
Cr -0.4037711207 -0.4631921327 -0.4771221951
O -0.1919217868 1.5442334093 -0.8338801056
C 1.2061667888 1.9389949808 -1.1468880679
C 1.3927834905 3.3530826092 -0.5459814674
C 0.0319156862 3.6603980276 0.0464466369
C -0.7892194012 2.6325871197 -0.1283429276
H -1.8323531680 2.4925390653 0.1110814628
H 1.6658426758 4.0840560110 -1.3124828127
H 2.1827563146 3.3717220056 0.2154796670
H 1.2795065283 1.9340047971 -2.2389407067
N 1.5392215938 -0.3168386953 -0.2767231922
C 2.0706857743 0.8467133467 -0.5759592466
N 3.3773254298 0.9296691780 -0.3476439994
C 3.8718442953 -0.3012895626 0.3108882581
C 2.5805598460 -1.1738263871 0.3477056642
H 2.2957046261 -1.4163530474 1.3701204882
H 2.7050279632 -2.1063435863 -0.2078534625
H 4.6370252642 -0.7599516066 -0.3226594856
H 3.9436017244 1.7691611350 -0.3839592959
C 4.4964544053 0.0603049223 1.6888517012
N 5.5430240751 1.0399519513 1.4227271237
O 3.5058579638 0.7200923951 2.4905394137
C 4.9460368217 -1.1745642834 2.5207114581
O 3.8208831528 -1.9301741506 2.9551926208
C 5.8816855903 -2.1294406498 1.7870910867
H 6.0289486898 1.2822220961 2.2875762749
H 6.2525016662 0.6745290424 0.7883710404
H 3.6286756419 1.6750715023 2.3508301117
H 5.4691671006 -0.7495639945 3.3923355567
H 3.2601594925 -1.3571700967 3.5085290210
H 6.7653512704 -1.6152195210 1.3952339987
H 6.2289065009 -2.8936583684 2.4869460099
H 5.3689501537 -2.6418479327 0.9655979864
C -0.3694502963 4.9948693168 0.6838907109
N 0.6566503211 5.9853131526 0.3897681835
O -1.5807446660 5.4593277475 0.1025868943
C -0.7363240709 4.8239174649 2.1949223366
O -1.7395331017 3.8274513586 2.3472514653
C 0.4376034013 4.4499341184 3.0876180395
H 0.3420084785 6.8962306351 0.7242270057
H 1.5362243536 5.7865149523 0.8636541138
H -1.3567949911 5.8109227782 -0.7775191418
H -1.1280666852 5.8061416241 2.4983170738
H -2.5272009904 4.0980229536 1.8360752094
H 1.2187387386 5.2158757199 3.0590129251
H 0.0951685444 4.3707123744 4.1224109513
H 0.8697336465 3.4801998387 2.8172281759
O -0.7589551481 -2.4881570282 -0.2414207391
C -1.1566126463 -2.9161490278 1.1168065928
C -0.2443298985 -4.1216927931 1.4654844347
C 0.3926031846 -4.4497250126 0.1273096555
C 0.0778300622 -3.5157623269 -0.7597131495
H 0.3150485910 -3.4166644133 -1.8058492805
H -0.8466330645 -4.9514895675 1.8486649009
H 0.5045732674 -3.8663889448 2.2235402288
H -2.2049951752 -3.2206873126 1.0381245997
N -0.6950386789 -0.5464833459 1.5101614375
C -1.0282052646 -1.7123348852 2.0072397522
N -1.2398771943 -1.7224038040 3.3243954130
C -0.8641207138 -0.4163590061 3.9125935603
C -0.5206695534 0.4104008721 2.6353209504
H 0.5062076108 0.7710944983 2.6605302433
H -1.1793464895 1.2749731956 2.5133620091
H -1.7314900911 0.0042576581 4.4305032812
H -1.3101444759 -2.5474585346 3.9095219338
C 0.2853898994 -0.6171016268 4.9353556426
N -0.2097486645 -1.5512999503 5.9395018649
O 1.3826983063 -1.2746625539 4.2761341347
C 0.8666067814 0.7058014853 5.5118613685
O 1.5804650301 1.4318484249 4.5183168047
C -0.1737946143 1.6465689843 6.1091440288
H 0.4659854516 -1.6531699061 6.6984983187
H -1.0766450744 -1.2308486269 6.3692564949
H 1.3311286528 -2.2117569385 4.5334137211
H 1.5580080071 0.3818495310 6.3064716336
H 2.3292251311 0.8891155151 4.2134371839
H -0.7663365236 1.1545983243 6.8872694401
H 0.3354390556 2.4964720199 6.5705979544
H -0.8491265222 2.0415067481 5.3423359001
C 1.2595834449 -5.6592421394 -0.2122447429
N 0.6218641412 -6.8577166159 0.3060847127
O 1.3268255165 -5.7872114554 -1.6285490164
C 2.7551527973 -5.4773572000 0.2069999975
O 3.3541962902 -4.4097326960 -0.5259266590
C 3.0025031412 -5.2153751570 1.6859695094
H 1.1949097038 -7.6752433585 0.0940572245
H 0.4919386692 -6.8380035612 1.3149207344
H 0.5523526643 -6.3171816006 -1.8920332260
H 3.2270852493 -6.4297363080 -0.0770232948
H 3.3929689832 -4.7009343541 -1.4523895118
H 2.4482355351 -5.9164876237 2.3187542377
H 4.0653548754 -5.3449231438 1.9049608777
H 2.7461832777 -4.1864691006 1.9571796766
O -2.5228200956 -0.4202749129 -0.7563815242
C -2.9693649371 -0.5949043118 -2.1483867302
C -3.9520778238 0.5702745394 -2.4118888788
C -4.3427912482 0.9618085465 -0.9955847681
C -3.4978654765 0.4015529712 -0.1374264077
H -3.4449344527 0.4304822127 0.9389672545
H -4.8118289508 0.2298106124 -2.9960092825
H -3.4735903070 1.4003949906 -2.9482996207
H -3.5014054679 -1.5533103652 -2.1766338402
N -0.5389733355 -0.7208172266 -2.4822312270
C -1.7395883369 -0.6877702436 -3.0072842056
N -1.7747028765 -0.8080906761 -4.3385591887
C -0.4071768444 -0.6757344428 -4.8832203120
C 0.4370093953 -0.8577059601 -3.5897718745
H 1.2270153600 -0.1121478538 -3.5138561340
H 0.8889049022 -1.8548883635 -3.5504174927
H -0.2161383066 -1.4880114421 -5.5889012610
H -2.5814844002 -0.6042496996 -4.9175365896
C -0.2617934182 0.6894172681 -5.6200887441
N -1.1600516410 0.6288224252 -6.7647198403
O -0.7327286070 1.7432517907 -4.7698105253
C 1.2112245101 1.0684400364 -5.9691059013
O 1.8760172084 1.6193332074 -4.8246783819
C 2.0669033852 -0.0631113497 -6.5219943868
H -1.0415709827 1.4480899682 -7.3620379384
H -0.9914059239 -0.1861136465 -7.3522492829
H -1.6229002559 1.9635805295 -5.0935615543
H 1.1307260984 1.8519998953 -6.7377866042
H 1.4348211198 2.4685615715 -4.6585664998
H 1.5967534689 -0.5260758049 -7.3959456200
H 3.0343169726 0.3353270266 -6.8374166398
H 2.2600374523 -0.8405513667 -5.7741519916
C -5.5166633883 1.8389656674 -0.5599991127
N -6.5791474360 1.7492389102 -1.5449984668
O -6.0207116660 1.3534361182 0.6775665867
C -5.0556488158 3.2854622070 -0.1990227726
O -4.1538358824 3.2248391247 0.9112171640
C -4.3801983852 4.0515244526 -1.3231697760
H -7.3925347447 2.2705714331 -1.2171894558
H -6.3159976775 2.1391960495 -2.4480549773
H -6.5854544000 0.5852543152 0.4776872088
H -5.9719243165 3.8116384105 0.1043206559
H -4.6652390476 2.8557838452 1.6523685055
H -5.0486426295 4.1593742889 -2.1831160844
H -4.1167130817 5.0519886197 -0.9722000431
H -3.4545671336 3.5617221977 -1.6477180147
