160
# extracted from Terachem optimization
Cr -0.0887717344 0.0575679162 -0.0853013247
O 0.1166657984 2.5731527054 -0.0314563984
C 1.4565776138 2.9741029119 -0.4056453808
C 1.7832717652 4.4090570515 0.0078874883
C 1.4808715323 4.6937878844 1.4910914602
C 0.0679814755 4.2312048188 1.7448688856
C -0.5010764502 3.2889509668 0.9938106681
H 2.1746524773 4.1172448730 2.1218069906
H 1.1619136679 5.0773559733 -0.5942091949
H 2.8171741595 4.6514880407 -0.2416823500
H -1.5349485245 2.9770850823 1.0891705556
H -0.5224959209 4.7081914350 2.5176234751
H 1.4652699984 2.9392519569 -1.5000969110
N 1.9700537624 0.6538210933 0.1499264740
C 2.4310733338 1.8616105664 0.0324899489
S 4.0869839644 2.4177636915 0.1857285433
C 5.0667335038 0.8447033924 0.4023845662
C 4.2731066134 -0.3284453042 -0.1612009088
C 2.8966728220 -0.4420530574 0.4963303784
H 5.1937174787 0.7328292667 1.4825448423
H 4.1452078337 -0.2241483963 -1.2458721008
H 4.8120570787 -1.2630506580 0.0181771546
H 3.0071227950 -0.4771734782 1.5887778619
H 2.4262006120 -1.3801367512 0.1988063046
C 6.4895705704 1.1198880458 -0.1713120817
N 6.5541098404 0.9424611591 -1.6059395148
O 6.7696110081 2.4974659604 0.1211231487
C 7.5985287235 0.3307746748 0.6332833440
O 7.6880865526 0.8492780173 1.9347532220
C 7.3888630285 -1.1745162064 0.7723921538
O 8.7746400911 0.5991557126 -0.1132540172
H 7.5385548659 0.8827940908 -1.8692724923
H 6.1207896126 0.0741981626 -1.9073597296
H 6.9256147751 2.9345273628 -0.7332828967
H 7.8131097226 1.8107992949 1.8216586059
H 7.2889072377 -1.6480472901 -0.2083471328
H 8.2656458494 -1.6040534929 1.2677084446
H 6.5223448537 -1.4130067159 1.3951245649
H 9.5295343810 0.2579207090 0.3944616783
C 1.7598986604 6.1910478968 1.7999559012
N 3.1489894063 6.4555469320 1.4422452996
O 0.8934270317 6.9485233007 0.9533774818
C 1.4164124309 6.6512299750 3.2659451208
O 0.0240981878 6.6579574079 3.4816772086
C 2.0442244915 5.8312239398 4.3859032141
O 1.9074573656 7.9932439633 3.2761621990
H 3.4149359296 7.3762623284 1.7905207021
H 3.7695145350 5.7881768936 1.8977081706
H 1.1842989380 7.8755292093 1.0192454899
H -0.3536095788 7.0435673601 2.6668677916
H 3.1326928364 5.8079230322 4.2885862560
H 1.7972883140 6.2886754980 5.3494275957
H 1.6575568329 4.8073760737 4.3961292852
H 1.5400147250 8.4286104834 4.0634893767
O -0.0891642370 -2.4037795264 -0.0039182101
C -0.7421277104 -2.8181660649 1.2244197993
C -0.5510138441 -4.3105657886 1.5088197064
C 0.9234981564 -4.7532124438 1.4425951428
C 1.4682106771 -4.2591355146 0.1242866592
C 0.9356093363 -3.2109093170 -0.4984256676
H 1.4798384318 -4.2881419449 2.2694177148
H -1.1009141406 -4.8681336930 0.7457704900
H -1.0164741588 -4.5639948331 2.4637022009
H 1.2428419948 -2.8566381015 -1.4766747580
H 2.2652881477 -4.8055248943 -0.3659752798
H -1.8077285556 -2.6343072807 1.0462626408
N -0.0559697034 -0.5995770618 1.9712604776
C -0.3414125710 -1.8150521492 2.3264921016
S -0.4356140411 -2.4853751116 3.9434787466
C -0.1699470755 -1.0059144995 5.0501587905
C -0.5229840872 0.2697438983 4.2930100424
C 0.2942661499 0.3935834266 3.0052375060
H 0.8963970493 -1.0084192977 5.2919543962
H -1.5901076595 0.2981442811 4.0393540247
H -0.3113248882 1.1420661067 4.9172403778
H 1.3654882928 0.2995066173 3.2286577907
H 0.1503993373 1.3830582563 2.5684003585
C -0.9082419945 -1.3299581743 6.3816130281
N -2.3291972448 -1.0916593734 6.3133813300
O -0.6870697962 -2.7410202411 6.5790313915
C -0.2028136110 -0.6626189071 7.6276696459
O 1.0711737793 -1.2243039103 7.7971368968
C -0.0197449364 0.8509879816 7.5729403726
O -1.0732272091 -1.0197873749 8.6908438100
H -2.6900713465 -0.9642027855 7.2580342148
H -2.5750390300 -0.2724948020 5.7685383668
H -1.5633526302 -3.1304153731 6.7397961582
H 0.9235571499 -2.1894886439 7.8103755323
H -0.9688174012 1.3537617827 7.3665853358
H 0.3421436632 1.1965462331 8.5467870936
H 0.7293247917 1.1455447725 6.8327525049
H -0.6495170153 -0.7509458520 9.5229342408
C 1.0405095677 -6.2911111000 1.6331675696
N 0.4006789759 -6.6633711176 2.8813569073
O 0.3326775675 -6.8967321174 0.5388084284
C 2.5168558603 -6.8414575827 1.5288431512
O 2.9373625425 -6.8672980937 0.1850416628
C 3.5632717097 -6.0643444124 2.3217470216
O 2.4054066182 -8.1729062247 2.0220737726
H 0.7883208828 -7.5499049135 3.2016935665
H 0.5659624504 -5.9767646703 3.6130094598
H -0.1572225219 -7.6491192267 0.9098331953
H 2.1700330156 -7.2336089220 -0.2990872760
H 3.2961387087 -6.0294337103 3.3818031883
H 4.5295410370 -6.5705351529 2.2291253266
H 3.6849852190 -5.0450653050 1.9434109283
H 3.2225622743 -8.6372562774 1.7763972284
O -2.1482452443 -0.4380338110 -0.2878390903
C -2.4348676800 -0.9255499059 -1.6392399542
C -3.9337482468 -0.9162247679 -1.9269213080
C -4.5836422481 0.4637607251 -1.7077815412
C -4.1246866568 0.9801972116 -0.3673713882
C -3.0327951440 0.5271506111 0.2388916007
H -4.2457529115 1.1587371288 -2.4899508693
H -4.4101565112 -1.6301639421 -1.2496413446
H -4.1155846755 -1.2912327225 -2.9361134781
H -2.7050797369 0.8174638418 1.2298992438
H -4.7259851665 1.7180081073 0.1521300555
H -2.0796959545 -1.9616793920 -1.6189718436
N -0.3982743466 0.2903409296 -2.1616195793
C -1.5076996635 -0.1931703408 -2.6241319110
S -2.0754826407 -0.2444345904 -4.2818666099
C -0.6228243224 0.4305794672 -5.2543304941
C 0.6578162400 0.2493705172 -4.4517801140
C 0.5788336234 0.9065032424 -3.0744848837
H -0.8398484477 1.4895882070 -5.4118633252
H 0.8959975643 -0.8150347696 -4.3660724165
H 1.4865543214 0.7128298964 -4.9926369441
H 0.3271023104 1.9713602764 -3.1734208263
H 1.5565630022 0.8461431714 -2.5890741549
C -0.6595281999 -0.2631295962 -6.6417811624
N -0.0997779426 -1.5848068427 -6.5836029107
O -2.0604363472 -0.2223506754 -6.9918706306
C 0.0586589970 0.5779380875 -7.7661523562
O -0.5194015853 1.8526806865 -7.8385693831
C 1.5660194328 0.7700756184 -7.6596147532
O -0.2618948506 -0.1961882540 -8.9264839095
H -0.7274059451 -2.2151731109 -6.0875678886
H 0.0292413048 -1.9462435393 -7.5266791417
H -2.1213742016 -0.6041442657 -7.8878502475
H -1.4851168604 1.7101890153 -7.8516933875
H 2.0700280251 -0.1803889231 -7.4746440465
H 1.9338478758 1.1869790358 -8.6031919234
H 1.8222139003 1.4877156197 -6.8766507187
H 0.0263436008 0.3065216089 -9.7071533542
C -6.1262076730 0.3462039081 -1.8607061124
N -6.3979366420 -0.2199403021 -3.1737581850
O -6.5572704994 -0.5678788190 -0.8461256668
C -6.9248677562 1.6777831723 -1.5976769821
O -6.9079918573 2.0051347580 -0.2275480321
C -6.4436642598 2.9018139751 -2.3668986353
O -8.2490987542 1.3148215241 -1.9876910769
H -7.3830910120 -0.0819446769 -3.3976276587
H -5.8666449587 0.2602004043 -3.8976351692
H -7.4465238084 -0.8696640857 -1.1005783955
H -7.0651673231 1.1541711431 0.2272730472
H -6.4487869707 2.7098905547 -3.4430975253
H -7.1167499914 3.7413376608 -2.1655355863
H -5.4390702500 3.2032534484 -2.0557306909
H -8.8449141607 2.0126425879 -1.6674507366
