109
# extracted from Terachem optimization
Cr -0.1380678779 0.0960731461 -0.0462951197
O 0.6703091626 2.5088981666 0.0972492036
C 2.1029719928 2.6676538256 -0.1107111492
O 2.4983860546 3.6788079105 0.8137559097
C 1.4238524908 4.0530223950 1.5366266184
C 0.3072704112 3.3763283758 1.0552079542
H -0.7319540198 3.4959833318 1.3217315970
H 2.2453669060 3.0372319812 -1.1481408152
O 2.0200452962 0.1830255873 -0.0464360797
C 2.8505198107 1.3518433371 0.2036789242
O 3.2162320888 1.2592515484 1.5481937336
C 3.3220762807 -0.1253392778 1.7813435398
C 2.6397738212 -0.7805841505 0.8330096770
H 2.4463129099 -1.8183370629 0.6275097531
H 3.7333354059 1.2545488661 -0.4442000109
C 4.1017192071 -0.5696676270 2.9288323694
C 4.9509342234 0.2628745683 3.5500091380
C 3.8852028743 -2.0052448948 3.4016619560
N 2.5930174477 -2.1019116555 4.0791810952
O 3.7991343378 -2.9181749385 2.3176688764
H 5.5395371796 -0.0704141440 4.4000735868
H 5.0944346568 1.2892678750 3.2301028255
H 4.7314755570 -2.2796229261 4.0499016129
H 2.4818922714 -3.0634611697 4.4054108352
H 2.6020377566 -1.5100691526 4.9099618927
H 4.6917470158 -3.2354471629 2.1039332346
C 1.4962091217 4.9451156918 2.6567266456
C 2.5939211914 5.6954816016 2.9033392188
C 0.2674710018 4.8812119948 3.5686893600
N -0.9052399823 5.3503845843 2.8263140583
O 0.1193546090 3.5124791276 3.8700677017
H 2.6455564183 6.3355850207 3.7793538324
H 3.4534164797 5.7003420812 2.2395248545
H 0.4806792871 5.4647747210 4.4781141047
H -1.7457844719 5.1792230410 3.3786305682
H -0.8574726230 6.3567208597 2.6602639730
H -0.5618398960 3.3453574385 4.5674577850
O -0.1729146010 -2.3213596646 0.3502516483
C -0.7497870424 -2.5237323535 1.6543779686
O -2.1431115426 -2.5644897882 1.4305640753
C -2.2372065173 -3.2154940223 0.1771757713
C -1.0748533037 -3.0685116615 -0.4664628414
H -0.7201138546 -3.3748699409 -1.4375317454
H -0.4179354907 -3.5051918869 2.0256959706
O -0.3239729774 -0.0949094090 2.0207389145
C -0.3081690804 -1.4403784404 2.6356928661
O -1.2198110585 -1.3856189390 3.7067743058
C -1.5681616600 -0.0557128252 3.9103113319
C -1.0622841028 0.7099044545 2.9393192564
H -1.0541294601 1.7732361839 2.7945318008
H 0.7175412060 -1.6225740819 2.9934837032
C -2.4066532813 0.2659460547 5.0606320120
C -2.7785959766 -0.6943909670 5.9223733289
C -2.8443409725 1.7142777328 5.2647164498
N -3.3429206978 2.3020394005 4.0432472729
O -1.7388416563 2.5613294027 5.6531636069
H -3.4162347164 -0.4686811016 6.7720942997
H -2.4673056918 -1.7267441828 5.8068028060
H -3.5642956934 1.7231594036 6.0973899398
H -3.8278941778 3.1738996111 4.2493563227
H -4.0297780979 1.7030585674 3.5821608178
H -1.5041148635 2.3662570280 6.5759133460
C -3.4957533336 -3.9002486123 -0.1515139980
C -3.4868544927 -5.1968995773 -0.4849685472
C -4.7796481008 -3.0743902377 -0.1599139432
N -4.7282026683 -2.1637458823 -1.3195147901
O -4.9901739183 -2.3200826919 1.0174516261
H -4.4043231012 -5.7160891389 -0.7490801253
H -2.5750603710 -5.7861272170 -0.4945917252
H -5.6308182048 -3.7638319582 -0.2059496901
H -5.5774205440 -1.5960407057 -1.3067213850
H -4.7751765630 -2.7186288337 -2.1765468648
H -4.1477184205 -1.9389307639 1.3137611339
O -2.1366436929 0.3615953486 -0.2719809367
C -2.6580029448 0.2232305654 -1.6430823233
O -3.7764732267 1.0513928276 -1.6993575647
C -4.2458915009 1.1461487255 -0.3804003671
C -3.2831009678 0.7789118453 0.4726000378
H -3.2157780831 0.7508622414 1.5438827819
H -2.9606206485 -0.8287997893 -1.7468918667
O -0.2830564037 0.1741073681 -2.1406569244
C -1.5835201878 0.6264668253 -2.6447740546
O -1.4236985772 2.0073380846 -2.8263631198
C -0.0871609763 2.1479886013 -3.2205013082
C 0.6074512738 1.0655715257 -2.8326869974
H 1.6260332084 0.7454979086 -2.9592663614
H -1.7352336075 0.1300244905 -3.6124319455
C 0.2951043674 3.3562714326 -3.9404939825
C -0.6394280426 4.1773158667 -4.4459368620
C 1.7852373015 3.6558217115 -4.0853734655
N 2.3079774458 4.2064115958 -2.8268602985
O 2.5592399142 2.4909941189 -4.3163574999
H -0.3617602760 5.0693015803 -5.0007781416
H -1.7006935968 3.9831368702 -4.3336574633
H 1.9096961176 4.3582422442 -4.9223292555
H 3.2988677601 4.4126928810 -2.9712589204
H 1.8498132780 5.0995214303 -2.6405942306
H 2.6154444767 2.3320493042 -5.2729891768
C -5.6261775221 1.5539727821 -0.1685946243
C -6.4375058794 1.7849624866 -1.2146567478
C -6.1175158278 1.7371150518 1.2664728907
N -5.7308633744 0.6221887678 2.1175791491
O -5.5260574473 2.8868716643 1.8716933500
H -7.4731146349 2.0749204858 -1.0639330603
H -6.0997384251 1.6969390806 -2.2415268001
H -7.2082160052 1.8797698575 1.2148264240
H -6.2940142028 0.6467295279 2.9670634074
H -5.9125299406 -0.2754097988 1.6647460606
H -6.0044478520 3.6709116231 1.5550878150
