124
# extracted from Terachem optimization
Cr 0.0902833647 -0.0903525280 -0.0035706845
N 0.6796346354 1.9107416053 -0.1376666761
C 1.9585433387 2.1515878859 0.1459670592
S 2.4612607953 3.7844376377 -0.1504384780
C 0.8728502853 4.1285979288 -0.7834017263
C 0.0708072072 3.0225779184 -0.6636829551
H -0.9533277799 2.9743793748 -1.0040191390
N 2.1644175990 -0.1426726621 0.3857356918
C 2.7866510745 1.0177771020 0.4776800788
S 4.4855948412 1.2603080623 0.8152362831
C 4.8464109833 -0.3075130878 1.7558371729
C 4.1265002991 -1.4370353442 1.0725095361
C 2.9057145006 -1.3294580182 0.5243013222
H 4.4898060430 -0.1610033457 2.7809244998
H 2.4184639845 -2.1996056680 0.1021837977
H 4.6242286522 -2.3984750794 1.0329878376
C 6.3740758027 -0.4554577762 1.8187201337
O 6.8230549365 -0.9652809902 0.5822999874
C 6.8779418509 -1.3514959741 2.9962973794
N 6.4169877409 -0.7901107261 4.2466778206
N 6.4942726958 -2.7462836124 2.9847554367
O 8.2904039688 -1.2988001125 2.7890793918
H 6.8061541904 0.5418549326 2.0095772973
H 7.7828766395 -1.0977753254 0.6924803653
H 6.6920905418 -1.4074732223 5.0104370454
H 6.8790381612 0.1036252658 4.4063706827
H 5.5308801376 -2.8819047310 3.2779196798
H 6.6373929982 -3.1534575634 2.0637392616
H 8.6726985747 -2.0496996106 3.2770318460
C 0.6502004374 5.4398912609 -1.4891719369
O 1.4398654871 6.4031585346 -0.8249810936
C -0.8444652014 5.8512929604 -1.6679022627
N -1.4994874813 5.9932816787 -0.3977365752
N -0.8352372130 7.1106362060 -2.4100026960
O -1.4821672032 4.8577589077 -2.4677989709
H 1.0133490404 5.3084227777 -2.5226825917
H 1.4981702209 7.1797903662 -1.4065991326
H -2.4869558262 6.1948200597 -0.5451523388
H -1.4314452742 5.1458983009 0.1611974661
H -1.7292576018 7.2100694689 -2.8899772383
H -0.7731945429 7.8819662477 -1.7457789859
H -1.0762919895 4.8488182844 -3.3703008149
N -0.2203741063 -2.1263941504 0.1479442713
C -0.4056469002 -2.5357234249 1.4058686711
S -0.5922372033 -4.2511076660 1.5656612335
C -0.4327005793 -4.4101118464 -0.1566324552
C -0.2439774367 -3.1767640776 -0.7327965657
H -0.1182625693 -2.9972422848 -1.7924308904
N -0.1965980753 -0.3065716968 2.0774533623
C -0.4500026095 -1.5431521644 2.4559541045
S -0.9340568562 -2.0341293358 4.0691219202
C -0.1210942991 -0.6696014423 5.0447969527
C -0.3730224328 0.6279111287 4.3254389186
C -0.3429329636 0.7512981097 2.9880773860
H 0.9482280167 -0.9028936913 5.0899772635
H -0.4490941635 1.7204149275 2.5138368300
H -0.5690727043 1.5099145355 4.9231996423
C -0.6647797936 -0.7387158803 6.4796039538
O -1.9223068082 -0.0990969899 6.5143725518
C 0.2947865151 -0.1167106951 7.5458995627
N 1.5640920127 -0.8052497099 7.4951628786
N 0.5677633278 1.2994889154 7.4444619635
O -0.4612251461 -0.3191868082 8.7416540590
H -0.7607555543 -1.8017733754 6.7585705443
H -2.1881950545 -0.1072641214 7.4524989628
H 2.2153275458 -0.3533253162 8.1367384284
H 1.4429385940 -1.7634049946 7.8190723891
H 1.2190721234 1.5129673630 6.6942486625
H -0.2935745282 1.8248766412 7.3166750474
H -0.0927673107 0.2844854189 9.4111480591
C -0.5336357053 -5.7734118419 -0.7812131543
O -0.5567573419 -6.7056304770 0.2828182932
C 0.6055961249 -6.0751687896 -1.8139928494
N 1.8978883850 -5.7605517516 -1.2638596170
N 0.4700039137 -7.4749524829 -2.1691537049
O 0.3666240912 -5.2819632656 -2.9789528093
H -1.4706381238 -5.8251683022 -1.3555481650
H -0.9714895406 -7.5205450114 -0.0434619087
H 2.6198358451 -6.0635160653 -1.9162957601
H 2.0022049266 -4.7535071856 -1.1542255669
H 1.0063290867 -7.6636640379 -3.0156451330
H 0.8635228803 -8.0501382879 -1.4259421128
H -0.3853480100 -5.6779287586 -3.4553635538
N -1.9801216443 0.1039590162 -0.2606871843
C -2.3375641486 0.2444253194 -1.5395614240
S -4.0513062722 0.2811135786 -1.7967275901
C -4.2868072467 0.0580741387 -0.0912335352
C -3.0767916653 0.0003268861 0.5549015742
H -2.9573905401 -0.0991906356 1.6251428046
N -0.0664174396 0.2104705350 -2.0884417127
C -1.2977219410 0.3502941754 -2.5357546319
S -1.7167576130 0.7192432720 -4.2118747251
C -0.2645149904 1.8468879798 -4.4879455041
C 0.9681572991 1.0661290196 -4.1095828684
C 1.0171304341 0.3480451829 -2.9742204996
H -0.4196659576 2.6888400329 -3.8052298623
H 1.9183539847 -0.1705861211 -2.6657197043
H 1.8226054747 1.0798249298 -4.7760902740
C -0.3012748499 2.3944983614 -5.9248133728
O 0.4173098042 1.5108938887 -6.7552937783
C 0.2913522987 3.8360539142 -6.0483374511
N -0.4943286849 4.7748929046 -5.2444295595
N 1.6785148881 4.0011344858 -5.6760429992
O 0.1860610737 4.0732072391 -7.4431222240
H -1.3523247160 2.4705604374 -6.2482781445
H 0.4031825366 1.9066347987 -7.6454255626
H -0.0526659894 5.6941363788 -5.3125871798
H -1.4135417526 4.8687376175 -5.6789790959
H 1.8203223125 3.9420222819 -4.6706470824
H 2.2418404837 3.2843963588 -6.1292951054
H 0.8130089284 4.7855413580 -7.6631567990
C -5.6745145696 -0.0426462345 0.4706722159
O -6.5568038298 -0.0778554361 -0.6276909585
C -6.0159870896 1.1102406575 1.4820223383
N -5.6395636868 2.3904800275 0.9484752805
N -7.4450124274 1.0196195793 1.7380835980
O -5.3033763857 0.8576422902 2.6922350432
H -5.7475154818 -0.9732841205 1.0550502787
H -7.4436418320 -0.2678227670 -0.2767678007
H -5.9325906868 3.1216718851 1.5950917138
H -4.6272788480 2.4570697898 0.8591964750
H -7.6562674391 1.4398074575 2.6423550174
H -7.9483658261 1.5552906009 1.0322340602
H -5.7089878887 0.0856345340 3.1263621336
