160
# extracted from Terachem optimization
Cr -0.1040976497 -0.0617666015 -0.1389976348
N 0.4121367496 2.4097722786 0.1273975325
C 1.7167013387 2.4321840476 0.2415031524
O 2.2147734334 3.6856806697 0.3444642219
C 1.1294004254 4.5352272709 0.2874903836
C 0.0213966308 3.7318423942 0.1520142240
H -1.0162073035 4.0195718040 0.0769342767
N 2.0374257147 0.0662108434 0.0958422094
C 2.6169747992 1.2878478918 0.2642730243
C 3.9902247938 1.4458654802 0.4384557651
C 4.8437724805 0.3274869642 0.4543563387
C 4.2234783234 -0.9278358867 0.2878337109
C 2.8513403301 -1.0076801290 0.1156117482
H 4.3926638439 2.4466684266 0.5364057666
H 2.3561337180 -1.9654303332 -0.0034979569
H 4.8035450463 -1.8426990513 0.3201719048
C 6.2978057323 0.4644338559 0.6328935876
C 7.1861820710 -0.4736986214 0.0738394903
C 8.5592214585 -0.3365569681 0.2334569467
C 9.1048907333 0.7291005272 0.9686330761
C 10.6166631935 0.8579851719 1.1630718471
C 11.3929614424 0.6904504979 -0.1600818757
N 10.9408140666 2.1027048711 1.8707113691
C 8.2186867658 1.6510348777 1.5432759403
C 6.8436608657 1.5295479179 1.3713945591
H 6.8052888651 -1.2965520897 -0.5242920088
H 9.2128671132 -1.0742394194 -0.2214507390
H 10.9151780667 0.0404270697 1.8348478678
H 11.1143934223 1.4774019378 -0.8715107751
H 12.4683963458 0.7680733894 0.0314242603
H 11.2141167979 -0.2765389053 -0.6418314240
H 11.8829280899 2.0411254440 2.2510637774
H 10.9540379810 2.8819517138 1.2117170704
H 8.6301240272 2.4515557093 2.1473659225
H 6.1882210209 2.2476605059 1.8565658722
C 1.3515424466 5.9641665435 0.3886955850
C 0.2705373285 6.8556062225 0.2552775267
C 0.4671960086 8.2250007452 0.3675376430
C 1.7428384616 8.7596752310 0.6167151747
C 1.9137835845 10.2714134722 0.7895141211
C 3.3146367197 10.7863318035 0.4111387317
N 0.8234989006 10.9726392148 0.0957125848
C 2.8166800399 7.8650467633 0.7430520555
C 2.6310318535 6.4908798226 0.6320558603
H -0.7291445639 6.4769944619 0.0590769615
H -0.3633412242 8.9133593925 0.2597336189
H 1.7619158284 10.4762317782 1.8600849312
H 3.5497717489 10.5538416886 -0.6347039850
H 3.3468863381 11.8740389185 0.5329214198
H 4.1074006387 10.3683153128 1.0409341748
H 0.8037093226 11.9465198740 0.3929718180
H 1.0059239273 10.9849307968 -0.9084399192
H 3.8174106134 8.2365909347 0.9342419285
H 3.4808259425 5.8242544827 0.7369720127
N -0.2264389363 -2.4883951921 0.1718887277
C -0.4450153151 -2.6596969269 1.4536756267
O -0.5987375047 -3.9568510670 1.7923761394
C -0.4676678530 -4.6786658859 0.6220168746
C -0.2371398065 -3.7572082723 -0.3713899766
H -0.0818441442 -3.9252082060 -1.4261212520
N -0.4192399689 -0.3401502259 1.9853860436
C -0.5363484110 -1.6107919640 2.4585196637
C -0.7493689842 -1.8953339418 3.8045339947
C -0.8485324580 -0.8523384809 4.7444506676
C -0.7327194678 0.4564410523 4.2334582800
C -0.5242788388 0.6614824813 2.8777685995
H -0.8628795471 -2.9281414414 4.1111070463
H -0.4311137283 1.6646196900 2.4739182067
H -0.7752801830 1.3142635066 4.8946411326
C -1.0602796490 -1.1181577082 6.1763957216
C -1.7345915958 -0.1934469339 6.9934783908
C -1.9308785944 -0.4454123806 8.3472690454
C -1.4510293169 -1.6214592730 8.9449114990
C -1.5994861655 -1.8960945842 10.4434349133
C -2.8388961525 -1.2379714811 11.0768342524
N -1.5123399801 -3.3426876431 10.6899606702
C -0.7746502506 -2.5427465047 8.1288255132
C -0.5871596447 -2.3016194349 6.7734220817
H -2.1458445104 0.7155369735 6.5636870977
H -2.4704680582 0.2870761947 8.9374528957
H -0.7103119665 -1.4598089825 10.9231815659
H -3.7607755754 -1.5935396210 10.6003948818
H -2.8848942794 -1.4974800925 12.1396643612
H -2.8207702391 -0.1446458087 11.0140124649
H -1.3914757236 -3.5092577804 11.6872825204
H -2.3932310877 -3.7889382835 10.4318922193
H -0.3962973394 -3.4500942433 8.5861670551
H -0.0296643115 -3.0240596504 6.1836093240
C -0.5947154813 -6.1218154992 0.6739558142
C -0.5736974866 -6.8728290310 -0.5147337052
C -0.6959993198 -8.2565870650 -0.4767687038
C -0.8440623677 -8.9420591778 0.7401131417
C -1.0334692447 -10.4600170475 0.8045363357
C -0.3898981191 -11.2185347856 -0.3705018132
N -0.6091620746 -10.9518670139 2.1235888690
C -0.8629793021 -8.1848771789 1.9225380048
C -0.7422951762 -6.8008225116 1.8963901648
H -0.4680090003 -6.3760652849 -1.4753268536
H -0.6787912288 -8.8028431058 -1.4132910516
H -2.1188884816 -10.6356568058 0.7590594641
H 0.6906821748 -11.0346709062 -0.4129378834
H -0.5460645471 -12.2941566627 -0.2377228867
H -0.8210069535 -10.9488287404 -1.3408074892
H -0.9365933312 -11.9079198452 2.2497359521
H 0.4098868093 -10.9919452495 2.1639559981
H -0.9700228165 -8.7105708089 2.8645918955
H -0.7615239509 -6.2428003015 2.8270566845
N -2.2115816018 0.1947552702 -0.4539058091
C -2.4684848342 0.3636597223 -1.7318153884
O -3.7775546529 0.5154612152 -1.9801202560
C -4.4182657978 0.4338005274 -0.7539036444
C -3.4345292578 0.2342804309 0.1841072490
H -3.5237916697 0.1137902096 1.2519028655
N -0.1922167914 0.1959966190 -2.2739217640
C -1.4487134257 0.3881840109 -2.7640387093
C -1.7151505025 0.5808512610 -4.1134872062
C -0.6578825493 0.5868186770 -5.0448647356
C 0.6358253500 0.3893591169 -4.5212825377
C 0.8183040993 0.2011196703 -3.1584701537
H -2.7421457270 0.6996870923 -4.4385351459
H 1.8081364893 0.0575786673 -2.7376435568
H 1.5033469750 0.4108880169 -5.1706493744
C -0.8976801182 0.7848174292 -6.4835126805
C -0.0550380656 0.1928887096 -7.4435599238
C -0.2883543232 0.3728779591 -8.8011068391
C -1.3622979484 1.1529135885 -9.2573502263
C -1.6232114012 1.3457614464 -10.7461688442
C -0.4687706044 2.1007366343 -11.4336036439
N -1.9552073859 0.0438273153 -11.3495796769
C -2.1936018632 1.7483741368 -8.3000194372
C -1.9741270210 1.5666309002 -6.9385182086
H 0.7651384257 -0.4453866047 -7.1277068137
H 0.3730693793 -0.1110908101 -9.5143116475
H -2.5288316509 1.9569757134 -10.8373790761
H 0.4662153596 1.5294854704 -11.3801901971
H -0.7034991496 2.2610365373 -12.4918441931
H -0.2911701288 3.0800693579 -10.9737173015
H -2.3091264861 0.1953765829 -12.2935844190
H -1.1107722089 -0.5182559290 -11.4589205295
H -3.0264676256 2.3648638355 -8.6269363357
H -2.6253739768 2.0663158339 -6.2268415863
C -5.8606299051 0.5611269756 -0.7144257264
C -6.5297403341 0.6063065278 0.5217666403
C -7.9130397748 0.7232662638 0.5713624111
C -8.6786806012 0.7910591026 -0.6025431702
C -10.2000422591 0.9429760436 -0.5391427330
C -10.9303310624 -0.0007208429 -1.5162138718
N -10.6687401128 0.8179821673 0.8470682886
C -8.0026817155 0.7527050469 -1.8335075476
C -6.6192035142 0.6415672788 -1.8960074293
H -5.9672156381 0.5623259158 1.4507280182
H -8.4273670018 0.7820153819 1.5235781265
H -10.4213633822 1.9773016338 -0.8399163624
H -10.7154912191 -1.0487808865 -1.2748611838
H -12.0115403923 0.1538045587 -1.4361689801
H -10.6521760741 0.1681606291 -2.5617344994
H -11.6063165102 1.2067997068 0.9239946084
H -10.7516996399 -0.1683468020 1.0963779720
H -8.5605063653 0.8150300314 -2.7625484495
H -6.1249005440 0.6127172180 -2.8615931658
