91
# extracted from Terachem optimization
Cr 0.2793565452 0.0907907108 0.0647019683
N 0.5646606719 2.1200344347 0.3362177540
C 1.8625172315 2.4407252652 0.4550023490
N 1.9854947399 3.7801799132 0.5374817380
C 0.7361367256 4.3510510703 0.4555618419
C -0.1487719958 3.3014343007 0.3295241670
H -1.2233308276 3.3183747676 0.2326846727
H 2.8196363503 4.3631273534 0.5723307660
N 2.3619287367 0.1536090739 0.2777462857
C 2.8812566732 1.4038559744 0.4595338595
C 4.2436669946 1.6217495231 0.6270129651
C 5.1226010244 0.5315866164 0.6092248599
C 4.5828745912 -0.7523853825 0.4315472036
C 3.2108440149 -0.8936395733 0.2718089392
H 4.6463612192 2.6173914767 0.7740103402
H 2.7558700177 -1.8662125666 0.1253825685
H 5.2187035770 -1.6280586681 0.4017000554
C 6.6095307101 0.7523129664 0.7353924194
O 6.8543311935 2.1257959523 0.9248456527
C 7.3502554295 0.2262641495 -0.5381608377
O 7.0597623003 -0.7999825387 -1.0951773815
H 6.9839922420 0.1418349816 1.5741655415
H 7.7177065874 2.2574715735 1.3482705645
H 8.1769363207 0.8868517327 -0.8670434727
C 0.6375394463 5.8554630793 0.5234424152
O 1.9286924287 6.3674186958 0.3328119271
C 0.0870319520 6.3242579749 1.8917490864
O 0.7467528258 7.0726948162 2.5676813040
H -0.0638028146 6.2113885558 -0.2500649142
H 2.0596889417 7.0582419287 1.0180741712
H -0.9132255466 5.9618086700 2.1918613084
N 0.0994922484 -1.9454861815 0.1018527693
C -0.1613131013 -2.4307559814 1.3269501823
N -0.3388751035 -3.7637986509 1.2455823845
C -0.2013690891 -4.1585502468 -0.0656040264
C 0.0731371019 -3.0105931104 -0.7766094648
H 0.2436837135 -2.8836083305 -1.8349514110
H -0.6056184680 -4.4369842482 1.9613695279
N -0.0357735029 -0.2303081634 2.1418809246
C -0.2406547838 -1.5388264234 2.4718632754
C -0.5172218492 -1.9443934132 3.7734634723
C -0.5979159456 -0.9849226464 4.7883881529
C -0.3740963755 0.3571271594 4.4461181916
C -0.0979223019 0.6874234436 3.1250166859
H -0.6802896519 -2.9866595907 4.0236473224
H 0.0656418010 1.7194930787 2.8388138185
H -0.4255474941 1.1421910650 5.1900300696
C -0.9847107924 -1.3825056946 6.1904422495
O -1.1081875005 -2.7840514205 6.2599276062
C -2.3327202182 -0.7006740305 6.5897823984
O -2.6721818647 0.3890567954 6.2044481652
H -0.2273367467 -0.9946473355 6.8917205813
H -0.9354449646 -3.0940612599 7.1630284711
H -2.9475712600 -1.3219304258 7.2705427463
C -0.3597160308 -5.6244480121 -0.3874621756
O -0.9344516418 -6.2383463726 0.7353646379
C 1.0046166839 -6.2866085197 -0.7001033716
O 1.3674630461 -7.2254748700 -0.0380970234
H -0.9911657681 -5.7364074170 -1.2848718659
H -0.4164652406 -7.0566753336 0.8984639742
H 1.5921789877 -5.8779709158 -1.5423967542
N -1.7464394566 0.3663292750 -0.1955707835
C -2.0726685655 0.4911743894 -1.4908237709
N -3.4119837012 0.5927232608 -1.6047543761
C -3.9749720373 0.5188426216 -0.3517164330
C -2.9216533742 0.3788551232 0.5266720586
H -2.9342797739 0.2823175628 1.6013740461
H -4.0007852511 0.6385436088 -2.4341986569
N 0.2111817855 0.2934380877 -2.0081428085
C -1.0425053242 0.4818698161 -2.5159132500
C -1.2705919846 0.6440249881 -3.8774476387
C -0.1897394700 0.6077362128 -4.7664445568
C 1.0967088158 0.4143310186 -4.2385671197
C 1.2497266765 0.2651271942 -2.8666051894
H -2.2684274488 0.8001424651 -4.2711021125
H 2.2269715065 0.1133657848 -2.4233752345
H 1.9660971333 0.3676222174 -4.8821190266
C -0.4234176520 0.7284539745 -6.2517673382
O -1.7938133304 0.9543658362 -6.4841039322
C 0.0564075163 -0.5662511047 -6.9859260646
O 1.0615917733 -1.1595564484 -6.6927500911
H 0.2062119456 1.5461829957 -6.6404797649
H -1.9219642350 1.3842177987 -7.3447845643
H -0.6164142829 -0.8746953782 -7.8106340776
C -5.4778680921 0.6073105271 -0.2412673062
O -6.0021406588 0.4530553193 -1.5325620794
C -5.9197420425 1.9704310544 0.3416881525
O -6.6546980642 2.6769266915 -0.3012952679
H -5.8414341324 -0.1760934051 0.4448567108
H -6.6767127000 1.1571904006 -1.6467986256
H -5.5510166192 2.2397667099 1.3484638589
