139
# extracted from Terachem optimization
Cr -0.1260890976 -0.1432222756 -0.3738150096
O 0.3174180745 2.3043733399 -0.3319471514
C 1.7032374416 2.5575352835 -0.4949349983
O 1.9894214997 3.6741768249 0.3004360879
C 0.8270276425 4.5322141816 0.2697183178
C -0.2978066951 3.6104077911 -0.2673519861
H -1.1658202400 3.5418859819 0.3843345251
H -0.6154792334 3.9070912691 -1.2734016160
H 1.0242359230 5.3544210933 -0.4271833559
H 1.8917289038 2.7942940754 -1.5598274967
N 1.9859795373 0.1396958792 -0.1316441772
C 2.5451754062 1.3686176863 -0.0775954624
C 3.8746471066 1.5691848585 0.2855865293
C 4.6895172857 0.4763786964 0.5962105909
C 4.1024527122 -0.7956592339 0.5218360783
C 2.7689470606 -0.9228161411 0.1692507597
H 4.2771817259 2.5726226930 0.3488456945
H 2.3025568840 -1.9023380631 0.1342803488
H 4.6776267237 -1.6902806588 0.7300774649
C 6.1258276842 0.6689551318 1.0893921861
N 6.5148712509 2.0831043476 0.9341705619
C 6.1221498256 0.3571516374 2.6067131073
C 7.1172020486 -0.2353665071 0.3433109469
C 6.9490562219 -0.7580413638 -0.8782086234
O 8.2757705272 -0.3356814838 1.0608941825
H 7.3469415907 2.2573428241 1.4951802162
H 6.7874231638 2.2604930122 -0.0328780777
H 5.8029368860 -0.6703268792 2.8029467217
H 7.1269930902 0.4795659160 3.0173699301
H 5.4423141142 1.0468127399 3.1151548402
H 7.7426153802 -1.3112317229 -1.3738483942
H 6.0232791620 -0.6374819819 -1.4247686725
H 8.9462218106 -0.8024981661 0.5348747713
C 0.6142098401 5.0879145864 1.6930839717
N 0.4165186126 3.9290595822 2.5943553845
C 1.8359088969 5.9462277809 2.1030790375
C -0.6314472998 5.9679358776 1.7570890260
C -1.2721229995 6.5323711648 0.7273794409
O -0.9772843236 6.1673564641 3.0667245560
H 1.3348854773 3.5408742107 2.8046285867
H 0.0359389051 4.2750190881 3.4737799572
H 1.9820139755 6.7872738600 1.4168939679
H 1.6853877109 6.3496853677 3.1081647373
H 2.7447812323 5.3360572673 2.0991307310
H -2.1129664973 7.2035236757 0.8826586201
H -0.9568101392 6.3875524526 -0.2976614630
H -1.7121719352 6.8004430668 3.1191474787
O -0.1393477982 -2.5301331384 -0.0973363913
C -0.6426971170 -2.8871599307 1.1939456601
O 0.1006231222 -3.9941680910 1.5995095846
C 0.3036148380 -4.8022335108 0.4235634278
C 0.2052113032 -3.7847782770 -0.7417107630
H 1.1585666043 -3.6478820849 -1.2499694476
H -0.5775918821 -4.0501537941 -1.4580432644
H -0.5036399432 -5.5420136728 0.3664396129
H -1.7085362993 -3.1576090340 1.0781895537
N -0.3847208737 -0.4965492613 1.7017882903
C -0.4991078601 -1.7499889330 2.1867665837
C -0.5374577037 -2.0203041163 3.5511085060
C -0.4650779371 -0.9713711604 4.4735593995
C -0.3617524647 0.3285592541 3.9546387717
C -0.3159560666 0.5274342531 2.5827583562
H -0.5940250030 -3.0415791202 3.9081821484
H -0.2104386538 1.5310903280 2.1729485547
H -0.3163971895 1.1891222554 4.6121597613
C -0.3923610273 -1.2504636364 5.9779951423
N -0.6363523190 -2.6842518894 6.2218519582
C 1.0621448763 -0.9448952876 6.4170410203
C -1.3907277249 -0.4051589561 6.7798828317
C -2.4945583307 0.1897841562 6.3101946762
O -1.0521822224 -0.4437112774 8.1033587506
H -0.3247128474 -2.9154444357 7.1636761300
H -1.6399614890 -2.8680477182 6.2075066937
H 1.3207562892 0.0999288236 6.2245166502
H 1.1780313719 -1.1282692183 7.4875102305
H 1.7512895351 -1.5918056508 5.8666321631
H -3.1917711829 0.6939191247 6.9745198664
H -2.7443227002 0.1803884444 5.2576408806
H -1.7408036577 -0.0056234990 8.6304549878
C 1.6682240891 -5.5073328062 0.5667296672
N 2.6936071315 -4.4486732224 0.6935901365
C 1.6405021772 -6.4558102508 1.7890840527
C 1.9795957158 -6.3347291172 -0.6788755935
C 1.1071790008 -6.7626879191 -1.5979732398
O 3.3125399514 -6.6443955358 -0.6953481726
H 2.6988115860 -4.1316075234 1.6614284567
H 3.6049565268 -4.8657769632 0.5123672600
H 0.8559079288 -7.2132420463 1.6878033200
H 2.6008975631 -6.9710042183 1.8782960886
H 1.4563750425 -5.8893411595 2.7076998887
H 1.4194773474 -7.3996029432 -2.4213444275
H 0.0503500985 -6.5365538912 -1.5430298657
H 3.5015139503 -7.2477482028 -1.4329658043
O -2.2230024966 -0.0817288725 -0.6459598685
C -2.6723761434 -0.0658317443 -2.0233534023
O -3.5689624908 0.9916172570 -2.1105722642
C -4.3273162650 0.9656511613 -0.8847923596
C -3.2714145511 0.5512012249 0.1571255072
H -2.8454809380 1.4264923900 0.6454166573
H -3.6335411058 -0.1792971753 0.8804100157
H -5.1141345616 0.2061769715 -0.9774946480
H -3.1795292046 -1.0284089596 -2.2034629964
N -0.2671194109 0.0703366864 -2.4794545392
C -1.5172771719 0.1198395838 -2.9827484839
C -1.7753829146 0.3039847409 -4.3372328233
C -0.7140513517 0.4447179220 -5.2367463199
C 0.5846349122 0.3960617246 -4.7034313320
C 0.7623022946 0.2089291777 -3.3422834053
H -2.7934143623 0.3619910850 -4.7056475611
H 1.7507736558 0.1620875373 -2.8987224845
H 1.4527945643 0.4884315643 -5.3458981418
C -0.9712690761 0.7315901375 -6.7182273949
N -2.4076096369 0.5576402523 -7.0044498258
C -0.6292705116 2.2253243145 -6.9529061680
C -0.1374056610 -0.1697780465 -7.6402070160
C 0.3971760606 -1.3566060555 -7.3256850261
O -0.1207226669 0.3637301682 -8.8975152207
H -2.6223273075 1.0047660563 -7.8939035996
H -2.6145178739 -0.4334171467 -7.1323310498
H 0.4195121480 2.4347110527 -6.7243244542
H -0.8032129326 2.4836293248 -7.9995238576
H -1.2660144832 2.8493821904 -6.3193017609
H 0.8956307966 -1.9694346152 -8.0722644327
H 0.3395308596 -1.7622544914 -6.3242720913
H 0.3097583412 -0.2551914901 -9.5106302980
C -4.9446453953 2.3651855405 -0.6706728751
N -3.8272631210 3.3242528621 -0.5744254973
C -5.9115069255 2.6906946519 -1.8343715912
C -5.7312631935 2.4063429208 0.6391181221
C -6.2064181348 1.3617896430 1.3264721430
O -5.9520930528 3.7097335627 0.9907543660
H -3.5229338480 3.5655584523 -1.5154461713
H -4.1626489948 4.1810653270 -0.1395744366
H -6.7083117813 1.9435568913 -1.9170952094
H -6.3759109784 3.6654167354 -1.6626172059
H -5.3677361246 2.7220515657 -2.7841174097
H -6.8114602665 1.4999424459 2.2186384516
H -6.0578283807 0.3396373434 1.0043238804
H -6.5316431614 3.7461098919 1.7695992474
