121
# extracted from Terachem optimization
Cr -0.0647794119 0.2105258462 0.2287268801
O 0.1439023299 2.3284106132 0.1618521596
C 1.4790035044 2.7885603428 -0.2800805064
C 1.8480109196 3.9653214360 0.6587222926
C 0.5500992216 4.2272818568 1.3892224207
C -0.3388106326 3.2931859641 1.0667487012
H -1.3645645053 3.1433827110 1.3702070038
H 2.1891989013 4.8371012774 0.0906460978
H 2.6377199078 3.7085683090 1.3740417690
H 1.3469286220 3.1355819973 -1.3112077570
N 1.9642758032 0.4360875291 -0.0615766504
C 2.4458437553 1.6288212569 -0.2420404373
C 3.8609995219 1.9204439642 -0.4040606376
C 4.7435350203 0.9281999697 -0.6481656470
C 4.2196368467 -0.4864250781 -0.7272352649
C 2.9588350464 -0.6462301800 0.1267657961
H 4.0118188304 -0.7422355530 -1.7780125569
H 4.9664626909 -1.2098542162 -0.3808109799
H 4.2112820430 2.9445807759 -0.3533751411
H 3.2351943651 -0.6427207027 1.1916410796
H 2.4745926721 -1.6039865657 -0.0773521047
C 6.2169982861 1.2498599341 -0.8453660948
O 6.4989182664 2.5579090890 -0.4433021190
C 6.6534012332 1.0797042951 -2.3392940617
O 6.8457821286 2.0989250782 -2.9703921225
C 6.9088915956 -0.2932717849 -2.9012446186
H 6.8038071291 0.5338164228 -0.2453012925
H 6.7700127462 3.0357775204 -1.2556398286
H 7.9111183359 -0.6081550395 -2.5794918905
H 6.2048827294 -1.0451619444 -2.5344993778
H 6.8986018381 -0.2573220491 -3.9925298737
C 0.4953815394 5.2355613440 2.5202887148
O 1.3862164370 4.7817095309 3.5209873655
C -0.9269185063 5.3526588829 3.1027227435
O -1.1558393416 4.7426905172 4.1348806831
C -1.9375569174 6.2152642269 2.4013980942
H 0.8262587198 6.2201025699 2.1613176788
H 0.8012973973 4.5223217736 4.2637842054
H -1.9095465545 7.2128516273 2.8611119379
H -1.7070987498 6.3366844948 1.3386298964
H -2.9412804332 5.8066474093 2.5321720374
O -0.4770850910 -1.8575307077 0.4389066136
C -0.5120391587 -2.3242022193 1.8315957855
C 0.3668666922 -3.6092010445 1.8534751780
C 0.4925717068 -3.9324063747 0.3790331281
C 0.0123953677 -2.9167429653 -0.3316959366
H -0.0472976858 -2.7582967739 -1.3960678144
H -0.1167331794 -4.4069794221 2.4258534228
H 1.3543183687 -3.4385145282 2.3011339265
H -1.5582019428 -2.5753734025 2.0430611640
N 0.2009211727 -0.0411707697 2.2704965568
C -0.0544156261 -1.2242744540 2.7591281373
C 0.0897384357 -1.5736966424 4.1583598795
C 0.2115691666 -0.6048324791 5.0956228704
C 0.2465754182 0.8295354853 4.6285513196
C 0.8360963865 0.9050341217 3.2193846034
H -0.7692835307 1.2538323298 4.6447701824
H 0.8505367619 1.4529106310 5.2971683600
H 0.0576621923 -2.6126165182 4.4653485483
H 1.9059201068 0.6516814902 3.2573159952
H 0.7531178846 1.9165487900 2.8244443807
C 0.3064692673 -0.9812180505 6.5633996228
O 0.5562335814 -2.3479616317 6.7072889589
C -1.0092513707 -0.6238086200 7.3414785796
O -1.7146938456 -1.5573440613 7.6624108274
C -1.2951983037 0.8002886480 7.7323211480
H 1.1245682874 -0.3929391115 7.0124954136
H -0.2281151934 -2.7150846243 7.1681266263
H -0.6789652289 1.0429038950 8.6090208528
H -1.0366233988 1.5197854391 6.9507017912
H -2.3449880606 0.9040516613 8.0135527108
C 1.2882243279 -5.0945133178 -0.1918777183
O 2.6477713656 -4.7215744400 -0.3228602776
C 0.6986209302 -5.4558864654 -1.5698248941
O 1.1574820788 -4.8692764995 -2.5405477151
C -0.3954100379 -6.4802791041 -1.6495323527
H 1.2352038402 -5.9541809596 0.4847391480
H 2.7440559709 -4.4539418768 -1.2582190733
H 0.0491181022 -7.4767550351 -1.5194257146
H -1.1255071555 -6.3516957289 -0.8427549740
H -0.8910467044 -6.4446383599 -2.6215236652
O -2.1855712794 0.2707046399 0.0631778001
C -2.6851212667 -0.1474244687 -1.2549964593
C -3.7476600563 0.9143331786 -1.6427143094
C -4.0175581190 1.5962571617 -0.3169779273
C -3.1065742255 1.2017073531 0.5680000161
H -2.9424908191 1.4585029824 1.6049049800
H -4.6416134059 0.4456585412 -2.0660845279
H -3.3777866123 1.6406720789 -2.3757043077
H -3.1613177835 -1.1228372470 -1.0991861570
N -0.3224391825 -0.0968618979 -1.8420707953
C -1.5485806468 -0.2897114136 -2.2381438318
C -1.9244341236 -0.6660588707 -3.5919140058
C -0.9933181571 -1.1278604737 -4.4556661631
C 0.4484839262 -1.1427925030 -4.0100724452
C 0.6849355385 -0.0858733523 -2.9276936282
H 0.7236053435 -2.1476039005 -3.6545588303
H 1.1186114295 -0.9332372917 -4.8518892125
H -2.9660744618 -0.6451846993 -3.8911017578
H 0.6492641384 0.9137779731 -3.3848898135
H 1.6730538617 -0.2065304457 -2.4858601443
C -1.4002039984 -1.6304351884 -5.8263905809
O -2.7066077835 -1.2471122569 -6.1308829816
C -1.2902407990 -3.1912120990 -5.9342192392
O -2.3313714338 -3.7950109255 -6.0954216367
C 0.0514185444 -3.8748299003 -5.8809412187
H -0.6918134112 -1.2153234110 -6.5654005609
H -3.1952441355 -2.0798699029 -6.3072057280
H 0.8700048992 -3.2092570004 -6.1686786310
H 0.2476697219 -4.2505328634 -4.8677413680
H 0.0297209333 -4.7396425991 -6.5495269370
C -5.0380053399 2.7112464723 -0.1932221280
O -4.6337824841 3.7906067622 -1.0128332648
C -5.1453656887 3.1717763466 1.2736604547
O -4.3249630594 3.9912572589 1.6570802733
C -6.2276831702 2.6016476802 2.1447211224
H -6.0112249938 2.3668660839 -0.5613133789
H -4.0888954801 4.3604897087 -0.4361598270
H -7.1908802719 3.0341427299 1.8406340617
H -6.3146114478 1.5169961054 2.0117751736
H -6.0469700094 2.8474968408 3.1928020671
