121
# extracted from Terachem optimization
Cr 0.1871241384 0.0923357457 0.1597733168
N 0.3774473237 2.1546537355 0.3698798066
C 1.6188076420 2.5749074335 0.2507596916
O 1.7445836959 3.8798462196 0.4154438253
C 0.4650330632 4.3625333990 0.6671707135
C -0.3763967866 3.2937314764 0.6371845563
H -1.4408969227 3.2689750858 0.7976627377
O 2.2776897207 0.3557150760 -0.0992324045
C 2.8073847986 1.7169992018 -0.0310379020
C 3.9063771025 1.8184325473 1.0301388396
C 5.0731745029 0.8759642007 0.6471894688
C 4.5290707193 -0.4551124779 0.2024559922
C 3.2547921676 -0.6591381862 -0.1190826244
H 5.7040982709 0.7434512525 1.5293219554
H 4.2535354002 2.8531310034 1.1041454552
H 3.4970747997 1.5268398894 2.0045234015
H 2.8184838853 -1.6006127041 -0.4263307044
H 5.2047203192 -1.3010814013 0.1183007681
H 3.2320914662 1.9448309709 -1.0166869233
C 5.9037737199 1.5460100557 -0.4695265601
O 5.4431286518 1.6838264722 -1.5862922850
C 7.2656553379 2.1789836258 -0.0956817854
O 6.8385906014 3.1153781779 0.8992092554
C 8.2898930190 1.1870738217 0.4525338639
O 7.8359188722 2.7896733576 -1.2013221210
H 7.5935977036 3.7023852124 1.0811820364
H 8.4963770836 0.3969622225 -0.2759069468
H 9.2276103855 1.7236623656 0.6306838128
H 7.9614430528 0.7449362257 1.3965953037
H 7.1212469814 3.0980582640 -1.7878723207
C 0.3674439632 5.8286402438 0.9195292138
O 1.3786781865 6.4945757369 0.9557780142
C -1.0511739456 6.4302687612 1.0173598453
O -1.7976295295 5.5323487835 1.7992060542
C -1.0350214781 7.8419650592 1.5834345694
O -1.5749281281 6.3778749071 -0.3073936148
H -2.7046244372 5.8805557017 1.8574464360
H -0.3798248365 8.4956134536 1.0009433050
H -2.0523894291 8.2487932768 1.5696408855
H -0.6714971461 7.8328621180 2.6136756072
H -1.4648096152 7.2471804875 -0.7276166100
N 0.1477310936 -2.0548893879 0.3726680123
C -0.0683667015 -2.4918608919 1.5989597415
O -0.7818703905 -3.6095157196 1.6289875838
C -1.0722397608 -3.9295641110 0.3138041250
C -0.4827656505 -2.9770942613 -0.4600011193
H -0.5119291449 -2.8610138352 -1.5316180859
O 0.2441458754 -0.4353498238 2.6661554952
C 0.3290855116 -1.8617099372 2.8952201438
C 1.7267568022 -2.2674576987 3.3879288400
C 2.0380266443 -1.5490099662 4.7173231789
C 1.6246200985 -0.0997844705 4.6177110993
C 0.8070393157 0.3522042343 3.6657372367
H 3.1127792377 -1.6182361248 4.9093126173
H 1.7650945494 -3.3536658961 3.5134543829
H 2.4715764875 -1.9821057004 2.6362953756
H 0.4826169094 1.3808401879 3.5627675443
H 1.9791586005 0.6071202319 5.3607792715
H -0.4025932090 -2.1402023518 3.6612686566
C 1.3091230265 -2.2175678823 5.9015431407
O 0.1647979398 -2.6140772019 5.7969931264
C 2.0972880095 -2.4663264350 7.2112614467
O 3.0850558188 -3.3876978792 6.7431323938
C 2.7273730012 -1.2149952597 7.8184442820
O 1.2650685091 -3.0206701997 8.1722135331
H 3.4337993474 -3.8436722026 7.5291926059
H 1.9611750978 -0.4751074866 8.0707684960
H 3.2336922118 -1.4973509942 8.7471418115
H 3.4685467516 -0.7711499537 7.1476723621
H 0.5710310957 -3.5314885846 7.7151243790
C -2.0949766236 -5.0076912710 0.1343187424
O -2.7480959486 -5.3386423566 1.1017683460
C -2.3426046411 -5.5170890546 -1.3066778541
O -2.5886013538 -4.3504062697 -2.0957988376
C -1.1259560049 -6.2286984808 -1.8930133285
O -3.4618624849 -6.3307102927 -1.2151541794
H -3.5138841925 -4.0816179247 -1.9172845502
H -0.8934071521 -7.1213655933 -1.3057756681
H -1.3563916723 -6.5263856968 -2.9215994677
H -0.2458442508 -5.5807184419 -1.9244209650
H -3.5838030739 -6.7858078563 -2.0655738140
N -1.9167796548 -0.1548177807 -0.0695050511
C -2.3518758742 -0.3734325523 -1.2954762931
O -3.4421161345 -1.1279355835 -1.3257830197
C -3.7454215885 -1.4390568010 -0.0118490370
C -2.8135705004 -0.8202278652 0.7640136750
H -2.6940942785 -0.8495544423 1.8352013434
O -0.3282165863 0.1166551826 -2.3580878425
C -1.7538299250 0.0758591092 -2.5890651697
C -2.2825350844 1.4346256447 -3.0753001212
C -1.5985379987 1.8114880132 -4.4055498321
C -0.1205176690 1.5142057917 -4.3162290123
C 0.4040691768 0.7428717538 -3.3641360819
H -1.7516257290 2.8795047235 -4.5878213017
H -3.3683806804 1.3781036937 -3.1971755585
H -2.0628035319 2.1980687326 -2.3204694505
H 1.4580042813 0.5117790663 -3.2643932125
H 0.5521129789 1.9297351065 -5.0592195319
H -1.9698023399 -0.6732874644 -3.3587746404
C -2.2195796639 1.0428095918 -5.5902320444
O -2.5570976768 -0.1199866498 -5.4813749779
C -2.5008856931 1.8099112133 -6.9058370905
O -3.4592035504 2.7655783442 -6.4452444313
C -1.2764021834 2.4848161712 -7.5195659178
O -3.0228234080 0.9474427900 -7.8588706464
H -3.9292804723 3.0882748115 -7.2340542428
H -0.5079638232 1.7464554245 -7.7692892808
H -1.5808633011 2.9745546374 -8.4501965499
H -0.8604581669 3.2461616687 -6.8536386926
H -3.4935371789 0.2305652987 -7.3939980007
C -4.7796015510 -2.5053730903 0.1634278764
O -5.0664834903 -3.1820578440 -0.8024412714
C -5.2946088979 -2.7649081212 1.5996085934
O -4.1268024779 -2.9759608616 2.3974739567
C -6.0431317733 -1.5690803106 2.1820417114
O -6.0756557870 -3.9068281824 1.5031234599
H -3.8138683853 -3.8847423945 2.2084915357
H -6.9362742476 -1.3588316593 1.5872104826
H -6.3443110993 -1.8096914225 3.2072599183
H -5.4180536554 -0.6728428649 2.2210683102
H -6.5224730266 -4.0475483011 2.3550264847
