103
# extracted from Terachem optimization
Cr -0.1213451118 -0.0614216693 -0.0223014912
N -0.0617174680 1.9762611771 0.2532775026
C 1.1362428678 2.5031449395 0.1743995063
O 1.4228534097 3.7696337408 0.3217575656
C 0.4224479206 4.7501903947 0.8338383196
C -0.9552782557 4.1760001086 0.6876946316
C -1.1453478119 2.8760308932 0.4421823464
H 0.6979580503 4.9102565318 1.8818244847
H -2.1258997090 2.4267861991 0.3630467396
H -1.7964867387 4.8452047147 0.8284771656
N 1.9387042887 0.3111070157 -0.2879008114
C 2.2743568426 1.6211295491 -0.1357496450
C 3.5707243851 2.0949991960 -0.2771457319
C 4.5934455667 1.1930240198 -0.6135803266
C 4.2485871396 -0.1561768795 -0.7478933747
C 2.9254953310 -0.5567398479 -0.5743418571
H 3.7868080676 3.1477960127 -0.1444407850
H 2.6511361168 -1.5995158324 -0.6859649628
H 4.9894518987 -0.9030009930 -1.0099072108
C 6.0070978225 1.7036713412 -0.8630634376
O 6.0400078254 3.0091754659 -0.4263828731
C 7.1286931906 0.8489457616 -0.2846873052
Cl 6.1384372597 1.6451522841 -2.7370350098
H 6.9394957839 3.3687568688 -0.5222330566
H 7.1194101414 -0.1732935110 -0.6676404502
H 8.0936077031 1.2873569893 -0.5572878418
H 7.0466926508 0.8343326643 0.8075433687
C 0.7014539706 6.0832256694 0.0993325034
O 2.0111975264 6.3821781074 0.4126193422
C 0.4130254105 6.0756413234 -1.3954577872
Cl -0.4532801425 7.2836252219 0.9163984513
H 2.2652884416 7.2270809845 0.0010067084
H -0.6279792673 5.8187598273 -1.6081528018
H 0.6024716937 7.0681335146 -1.8144405448
H 1.0790937149 5.3600039845 -1.8900171460
N 0.1850422698 -2.0958661151 0.0343151545
C 0.3712378695 -2.5873284857 1.2352963945
O 0.5997945710 -3.8404074686 1.5236786943
C 0.6933346462 -4.9074252138 0.4863591267
C 0.4049208782 -4.3271958279 -0.8652661905
C 0.1830972349 -3.0216492869 -1.0438436059
H 1.7208070389 -5.2742798966 0.5691248125
H -0.0135629954 -2.5888168773 -2.0155261297
H 0.4044640887 -5.0097661258 -1.7075107923
N 0.1085895698 -0.3659693029 2.0544559306
C 0.3187193420 -1.6696772009 2.3864261458
C 0.4431678185 -2.1110825639 3.6966035420
C 0.3278126602 -1.1815748919 4.7428797870
C 0.1283211261 0.1589775324 4.3979816696
C 0.0268086660 0.5258744493 3.0590322432
H 0.6043829819 -3.1605739142 3.9103689689
H -0.1459438381 1.5605427422 2.7896506912
H 0.0195691842 0.9244468259 5.1578017706
C 0.3692989237 -1.6484267941 6.1918968858
O 0.7783771171 -2.9637087328 6.1764066555
C 1.1902325470 -0.7767571849 7.1357830477
Cl -1.4308410265 -1.5373907794 6.7149884972
H 0.8572943547 -3.2974602833 7.0873492331
H 0.8359603850 0.2553042008 7.1701726955
H 1.1190837997 -1.1779820443 8.1512816291
H 2.2400208906 -0.7951934037 6.8235195253
C -0.2265403064 -6.0633486140 0.9535276632
O 0.2615917350 -6.4137071653 2.1951458317
C -1.7165627912 -5.7481739368 0.9466073265
Cl 0.0902998958 -7.4113222014 -0.2781893039
H -0.2382711164 -7.1712471477 2.5474448057
H -2.0651073759 -5.4674976464 -0.0505374624
H -2.2832654523 -6.6282924783 1.2634890671
H -1.9203987577 -4.9357731616 1.6536198090
N -2.1571254802 -0.2536682631 -0.0712871155
C -2.6806597150 -0.1944709226 -1.2728958769
O -3.9504714851 -0.3078298583 -1.5563563481
C -5.0001772237 -0.2797158753 -0.4980577627
C -4.3722169524 -0.5727663983 0.8313665404
C -3.0477337964 -0.5307212299 1.0016943243
H -5.4223880183 0.7297923436 -0.5473567946
H -2.5720570231 -0.7079951367 1.9563613583
H -5.0337084426 -0.7809764046 1.6646858439
N -0.4662275509 0.1140149866 -2.0947233352
C -1.7827388481 -0.0026880867 -2.4236312797
C -2.2495222372 0.0509586132 -3.7291253288
C -1.3294776387 0.2150354936 -4.7771297504
C 0.0188949456 0.3606411297 -4.4350004227
C 0.4085447658 0.3074863505 -3.0989550137
H -3.3079752622 -0.0457133463 -3.9365566164
H 1.4541687639 0.4100097931 -2.8355680638
H 0.7818577075 0.4882539856 -5.1945841292
C -1.8077566822 0.1880815337 -6.2238850403
O -3.1839267584 0.2316665799 -6.1862599268
C -1.1993113804 1.2481153705 -7.1352421714
Cl -1.2301631045 -1.4938367448 -6.8222079985
H -3.5403739952 0.2519860042 -7.0917906848
H -0.1094142362 1.1961936421 -7.1705107732
H -1.5648844261 1.0992051246 -8.1558389530
H -1.5100771201 2.2408833068 -6.7922852139
C -6.1143760008 -1.2465870076 -0.9663203578
O -6.5102395879 -0.7511432697 -2.1913784913
C -5.7269866462 -2.7190519736 -0.9954412420
Cl -7.4551954063 -1.0171363719 0.2943417644
H -7.2391789262 -1.2898596756 -2.5467068544
H -5.4069677060 -3.0729763624 -0.0120255615
H -6.5861037010 -3.3220251010 -1.3030679239
H -4.9218137148 -2.8692930492 -1.7232007553
