145
# extracted from Terachem optimization
Cr -0.1911086124 0.1021634839 -0.0012581603
N -0.1700080461 2.1342624882 -0.2186423334
C 1.0083721872 2.6647293117 -0.4517416094
O 1.2482224985 3.9370102665 -0.6267562391
C 0.1404422665 4.9410373686 -0.8316210238
C -1.1398261642 4.3341781956 -0.3520932218
C -1.2680237048 3.0259390984 -0.1062261575
H 0.4437852725 5.7676438122 -0.1829899404
H -2.1932879134 2.5707558928 0.2224167530
H -1.9832042061 4.9987600705 -0.2037270762
N 1.8744036595 0.4522239485 -0.2939289847
C 2.1772969692 1.7673395310 -0.4889896157
C 3.4695881051 2.2192140250 -0.7063796766
C 4.5411011100 1.3051813205 -0.7363166504
C 4.2140438415 -0.0417778758 -0.5275938809
C 2.8902743444 -0.4252407152 -0.3110073110
H 3.6851750545 3.2735507307 -0.8357956809
H 2.6405601020 -1.4692100321 -0.1593051557
H 4.9770757034 -0.8109365629 -0.5253277248
C 5.9610284423 1.8049319272 -1.0324007010
N 6.0212313508 3.2094844728 -0.5947136456
C 7.0319254294 0.9340110214 -0.3433023151
C 6.1568642989 1.8141704666 -2.5851431555
C 6.0652515208 0.4718461817 -3.3127661655
H 6.2553818184 3.2670708956 0.3961262766
H 6.7623868889 3.6998220430 -1.0921733862
H 7.0480376386 -0.1019455787 -0.6956630846
H 8.0194699261 1.3589257339 -0.5473531347
H 6.8906726439 0.9222104824 0.7437934048
H 5.4344460890 2.5240661214 -3.0071869074
H 7.1513830612 2.2453799413 -2.7600713159
H 5.0822137384 -0.0014183843 -3.1953856417
H 6.2262919995 0.6247719264 -4.3841406002
H 6.8267328704 -0.2363872204 -2.9720293270
C 0.2294637942 5.4425020079 -2.3183165630
N 1.5606087575 5.9803648773 -2.5864329158
C -0.0118893732 4.2882214185 -3.3029926909
C -0.7740096903 6.6144958158 -2.5257872512
C -2.2312343124 6.2838366231 -2.8718263157
H 2.3038507346 5.3390171358 -2.3215343783
H 1.7201523480 6.8668099279 -2.1113092490
H -0.9638573389 3.7797191163 -3.1188411015
H -0.0173097657 4.6829481219 -4.3217928433
H 0.7995818041 3.5515402534 -3.2487840281
H -0.7408500936 7.2730381493 -1.6449471541
H -0.3536218860 7.2017748982 -3.3499212491
H -2.7501208758 5.7036778969 -2.1012596023
H -2.7896762757 7.2160732018 -2.9995207638
H -2.3075361914 5.7318678797 -3.8136026636
N 0.1326977361 -1.9396753557 0.3145619268
C 0.2822637999 -2.2496193650 1.5798284706
O 0.4803836901 -3.4478744086 2.0642919348
C 0.5836267009 -4.6834841326 1.2093614325
C 0.4049506487 -4.2791061141 -0.2202939506
C 0.1821442902 -3.0175206862 -0.6071092099
H 1.6023728556 -5.0384079189 1.4021895749
H 0.0443548957 -2.7499922872 -1.6457634390
H 0.4512998554 -5.0637604274 -0.9653070858
N 0.0237388192 0.0725864343 2.0519609037
C 0.2439783154 -1.1652284478 2.5786495922
C 0.4327145803 -1.3740938194 3.9350429221
C 0.3890400874 -0.2889961666 4.8330135746
C 0.1622426203 0.9766035767 4.2732922901
C -0.0096229774 1.1165669119 2.8972560258
H 0.6370008317 -2.3634935618 4.3268034930
H -0.1870298700 2.0875698319 2.4488423975
H 0.1217599463 1.8665480038 4.8897764993
C 0.5520988798 -0.5476963571 6.3364206629
N 1.3730280763 -1.7622922716 6.4735786229
C 1.1725198988 0.6606303016 7.0664840276
C -0.8566250545 -0.8956348779 6.9229925011
C -1.9473990218 0.1717427023 6.8199511082
H 2.3656425023 -1.5291969902 6.4490176169
H 1.2043159973 -2.1978482383 7.3788462539
H 0.5542097334 1.5623691219 7.0222546844
H 1.2996773870 0.4099795135 8.1239007037
H 2.1604114022 0.9048022647 6.6583127249
H -1.1934431100 -1.8262886309 6.4493538706
H -0.6900178096 -1.1316254319 7.9822908133
H -2.1902994810 0.4256242474 5.7805729781
H -2.8657107383 -0.2007375636 7.2837670300
H -1.6779346582 1.0948558912 7.3427339197
C -0.4249214895 -5.7417628143 1.8035822876
N -0.3626813580 -5.7546043813 3.2597921695
C -1.8663067373 -5.3950745332 1.4060363565
C -0.0250283300 -7.1757300277 1.3582002204
C -0.0570293679 -7.5536415322 -0.1279019842
H -0.5692001580 -4.8492668125 3.6703469255
H 0.5336066714 -6.0797618094 3.6161482161
H -2.0098340967 -5.3926338210 0.3213153690
H -2.5447803786 -6.1294126267 1.8465739393
H -2.1555614364 -4.4071565551 1.7884303988
H 0.9773671279 -7.3893168417 1.7569712298
H -0.7070058570 -7.8318999263 1.9088195992
H 0.7636500898 -7.1108423119 -0.7041563431
H 0.0570148554 -8.6377290002 -0.2215432956
H -1.0052305906 -7.2925427500 -0.6109548368
N -2.2178866132 -0.1188377568 -0.0510450232
C -2.7219077915 -0.3431503780 -1.2416030768
O -3.9868085358 -0.5241191319 -1.5127948418
C -5.0617697051 -0.5747234445 -0.4571483410
C -4.4459200749 -0.2371645588 0.8632983392
C -3.1318868502 -0.0534671332 1.0312399882
H -5.7604871303 0.2040321650 -0.7807984576
H -2.6850605003 0.1700619346 1.9905888608
H -5.1113883739 -0.1560116615 1.7140077027
N -0.4893892554 -0.2109233125 -2.0680756843
C -1.8013323588 -0.3914134468 -2.3915587217
C -2.2350555344 -0.6059881116 -3.6908570287
C -1.3056179974 -0.6520119220 -4.7474180361
C 0.0383890688 -0.4577274915 -4.3996571952
C 0.4025521085 -0.2408337232 -3.0712043285
H -3.2876053676 -0.7227045036 -3.9215260887
H 1.4436563343 -0.0972183888 -2.8063989769
H 0.8196008411 -0.4672999791 -5.1502193553
C -1.7863106217 -0.9459206951 -6.1744782674
N -3.1889370451 -0.5048737043 -6.2545081497
C -0.8991157668 -0.2568070691 -7.2320811845
C -1.7963657520 -2.4982809917 -6.3726819532
C -0.4568095727 -3.2290720804 -6.2673605468
H -3.2403404266 0.4864732704 -6.4880988063
H -3.6684998363 -0.9997556281 -7.0043976225
H 0.1365220739 -0.6105661621 -7.2343604770
H -1.3104826342 -0.4588381356 -8.2257880421
H -0.8876838530 0.8300442199 -7.0889301344
H -2.5149233370 -2.9200051533 -5.6587558159
H -2.2169140300 -2.6709714432 -7.3721905660
H 0.0055167279 -3.1157270731 -5.2787815140
H -0.6104824128 -4.2997102159 -6.4324876085
H 0.2605706437 -2.8883409331 -7.0203052002
C -5.7836581327 -1.9712155302 -0.5961078821
N -6.0289883896 -2.2879835869 -1.9979942026
C -4.9093717133 -3.0918724783 -0.0158776118
C -7.1871257621 -1.9216807820 0.0705693081
C -7.3097950275 -1.7112254018 1.5853724193
H -5.1793826482 -2.2928481142 -2.5541807812
H -6.6997390784 -1.6577885511 -2.4330276739
H -4.7112104740 -2.9544034059 1.0513189414
H -5.4173032973 -4.0488294433 -0.1567353917
H -3.9441535362 -3.1513343291 -0.5365337216
H -7.7817283141 -1.1541619094 -0.4454146531
H -7.6480334555 -2.8794842532 -0.1935059787
H -7.1104622877 -0.6794164650 1.8958722103
H -8.3377431306 -1.9270079988 1.8910516393
H -6.6600485744 -2.3814900189 2.1584428234
