148
# extracted from Terachem optimization
Fe 0.1500031375 -0.2930280154 -0.2624458178
N 0.4436767573 1.6664881369 -0.4256785127
C 1.6585297166 2.0580058734 -0.2366729720
S 2.0132615538 3.7772838357 -0.4094779841
C 0.3044747399 4.0099357836 -1.1314285816
C -0.4866963318 2.7639887271 -0.7028763031
H -1.0610542571 2.9524589201 0.2103485124
H -1.1917718615 2.4817279064 -1.4837377949
H 0.4211416470 4.0375275090 -2.2142553560
N 2.1629595472 -0.2050752712 0.0221921911
C 2.6485322593 0.9985941787 0.0916182911
S 4.2375318130 1.5590642238 0.5600226484
C 5.0884948272 -0.0543636866 0.9358141120
C 4.4959254750 -1.1855620233 0.1059280857
C 2.9961230491 -1.3683681810 0.3387572115
H 4.9321564889 -0.2505020562 1.9970985778
H 4.6930489421 -1.0104749222 -0.9576471140
H 5.0045068208 -2.1126685044 0.3859429172
H 2.7977636713 -1.6425972230 1.3845106868
H 2.6252592310 -2.1961505376 -0.2715140942
C 6.6022223649 0.2177230295 0.7142387865
O 6.8971088781 0.4576788809 -0.6351326040
O 6.8539920278 1.3993607389 1.4447308577
C 7.5222037794 -0.9479701140 1.2391578480
N 6.9773763366 -1.4485020147 2.4978028329
O 7.4122432947 -1.9665027422 0.2373344653
C 8.9848598548 -0.4862402277 1.3301876101
H 7.2080719935 -0.3939783224 -0.9987579351
H 7.5644864244 1.8721245412 0.9776632958
H 7.5592533360 -2.2125096706 2.8424328390
H 7.0373749092 -0.7079218334 3.1980822900
H 8.2055964475 -2.5254116052 0.2669220072
H 9.3443175421 -0.0922903729 0.3738879359
H 9.1087453613 0.2826546766 2.0967137406
H 9.6191533551 -1.3366251908 1.6120920803
C -0.2967521566 5.3571781680 -0.6823626558
O -0.5172919299 5.4139633307 0.7069459403
O 0.6593214538 6.3134168162 -1.0961756635
C -1.6979633323 5.6317262387 -1.3446866888
N -1.5833258414 5.3275290700 -2.7604982020
O -2.6557430755 4.6938889628 -0.8462853297
C -2.1855472798 7.0586726939 -1.0349205863
H 0.3400400963 5.2649003498 1.1455475074
H 0.4151443630 7.1711263014 -0.7083365912
H -2.4841757521 5.4864932473 -3.2101444532
H -0.9150134438 5.9667719516 -3.1881246378
H -2.7973659434 4.9029963378 0.0918135034
H -2.2160947887 7.2542559822 0.0424809436
H -1.5502005885 7.8156508328 -1.5068105130
H -3.1959239777 7.1768279886 -1.4382760668
N -0.0755360448 -2.2687468968 -0.0471622984
C -0.2692838252 -2.6564985468 1.1681185907
S -0.5881751753 -4.3641789212 1.4560466507
C -0.7497041703 -4.6000656683 -0.3903031079
C -0.0616605212 -3.3743713954 -1.0120847425
H 0.9819698909 -3.5989637352 -1.2591208173
H -0.5652031479 -3.0867868202 -1.9340980837
H -1.8163702675 -4.5984949541 -0.6117916980
N -0.1050971170 -0.3999885783 1.7587226491
C -0.2459494437 -1.6057012759 2.2198133373
S -0.3809619555 -2.1771086645 3.8655201468
C -0.4154777755 -0.5785773753 4.8171183071
C -0.9245729502 0.5606951927 3.9434984904
C -0.0823963495 0.7407630830 2.6789279088
H 0.6104364990 -0.3772196714 5.1265607127
H -1.9744338455 0.3957314964 3.6749331890
H -0.8730803252 1.4823035100 4.5300202646
H 0.9657914776 0.9458141421 2.9416934085
H -0.4363677780 1.6061517854 2.1141162650
C -1.2438410607 -0.8779249579 6.0979198595
O -2.5831465583 -1.1673738831 5.8069436603
O -0.6449668122 -2.0382728357 6.6349898786
C -1.1880445248 0.2938571291 7.1499674449
N 0.1653586807 0.8418148673 7.1717504617
O -2.0893081330 1.2814961009 6.6333503878
C -1.6927694791 -0.1795720404 8.5210825199
H -3.0718681024 -0.3277261379 5.9086236284
H -1.3526930575 -2.5394809998 7.0758713157
H 0.2141270242 1.5993594089 7.8535887324
H 0.8046161727 0.1192119346 7.5062953542
H -2.4149409989 1.8240327148 7.3696176481
H -2.6966329258 -0.6119032424 8.4552149849
H -1.0185939961 -0.9212361909 8.9562633074
H -1.7303178294 0.6741128474 9.2103223417
C -0.1794076010 -5.9714676535 -0.8061610021
O 1.2001083057 -6.0930086663 -0.5474824661
O -0.9313763139 -6.8932065569 -0.0418708482
C -0.3372186181 -6.2351572065 -2.3470804449
N -1.6788731191 -5.8270210637 -2.7336551535
O 0.5305136886 -5.3654261551 -3.0709560492
C 0.0014930033 -7.6968211280 -2.6977852446
H 1.3317557178 -6.0067480929 0.4140386250
H -0.5337161786 -7.7735784210 -0.1541252860
H -1.7780330027 -5.9350354020 -3.7421535685
H -2.3589637168 -6.4448066052 -2.2931956106
H 1.4364993154 -5.6566121164 -2.8751652087
H 1.0029642409 -7.9810154587 -2.3560946792
H -0.7240117634 -8.3960585127 -2.2685369568
H -0.0361332612 -7.8081540763 -3.7857788235
N -1.8020582774 -0.0624993180 -0.5729736973
C -2.1390294957 -0.0028475572 -1.8169585299
S -3.7801510365 0.4733476105 -2.2156479443
C -4.2248425456 0.3371114202 -0.4069740141
C -2.8845212931 0.2778541970 0.3543085632
H -2.6533620080 1.2442316028 0.8116072943
H -2.9315888152 -0.4604072574 1.1562305836
H -4.7740602721 -0.5958549920 -0.2897500981
N 0.1084020679 -0.4400788658 -2.2794622283
C -1.0652900051 -0.2807108480 -2.8108555308
S -1.5737599628 -0.3341345252 -4.4825885466
C 0.0402198449 -0.6743562671 -5.3416598960
C 0.9931835457 -1.4348401444 -4.4267467624
C 1.2819564995 -0.6933878951 -3.1207713027
H 0.4644244899 0.2943589434 -5.6071631902
H 0.5900048129 -2.4304903543 -4.2104038736
H 1.9369499422 -1.5715487089 -4.9623496150
H 1.7619093693 0.2743948499 -3.3243830469
H 1.9914749218 -1.2669962976 -2.5194458225
C -0.3299708437 -1.4146442679 -6.6602092717
O -0.7547406670 -2.7293524541 -6.4209035261
O -1.4174181825 -0.6890798530 -7.1933862447
C 0.8524259372 -1.4351954530 -7.6995025601
N 1.4982631715 -0.1261593811 -7.7011154014
O 1.7635612001 -2.4154391172 -7.1860687405
C 0.3570480085 -1.8852183605 -9.0827368024
H 0.0416820787 -3.2878440760 -6.5078463308
H -1.9848366879 -1.3319185716 -7.6527709831
H 2.2554586728 -0.1194371785 -8.3847536444
H 0.8238495457 0.5720249873 -8.0177033261
H 2.3069553809 -2.7513735429 -7.9170116218
H -0.1503431588 -2.8543207149 -9.0377088693
H -0.3253538380 -1.1493379859 -9.5150021461
H 1.2137000601 -1.9768183701 -9.7630988425
C -5.1722933896 1.4851944747 0.0091375784
O -4.5374275953 2.7396735748 0.0831885333
O -6.1880903978 1.4697341103 -0.9755176981
C -5.7729428953 1.2420111733 1.4423989111
N -6.2454106513 -0.1305791507 1.4992122991
O -4.7278256921 1.3141966379 2.4120229711
C -6.8505417608 2.2909091764 1.7778608593
H -4.1573629532 2.9855146790 -0.7817906006
H -6.7324040495 2.2659817052 -0.8542481312
H -6.6234798724 -0.3155158944 2.4270593093
H -7.0036424207 -0.2522442955 0.8296865405
H -4.4592927571 2.2465812698 2.4506394518
H -6.4742413881 3.3146981426 1.6766106031
H -7.7336130866 2.1822099504 1.1390438632
H -7.1709849409 2.1392102930 2.8132413819
