127
# extracted from Terachem optimization
Fe 0.1585635556 -0.1896319987 -0.1513570671
N 0.5312055879 1.7533368096 -0.4579114967
C 1.7919705962 2.1445498876 -0.4453544241
S 2.0167328297 3.8243060304 -0.7922219979
C 0.2856557509 3.9936718781 -0.9812607435
C -0.3202175269 2.7922559026 -0.7711324495
H -1.3851948183 2.6342783325 -0.8230664970
O 2.2539109169 -0.1260747190 -0.0462067825
C 2.8667231765 1.1735246624 -0.0563325418
S 3.5207557660 1.6922953403 1.5925170198
C 4.5210968374 0.1909896278 2.0581600289
C 3.7139071905 -1.0766356337 1.7264477246
C 3.1865694514 -1.1953956607 0.3050112135
H 4.5539455579 0.2624607411 3.1471713339
H 3.6867757901 1.1475201049 -0.7816023880
H 2.6012569341 -2.1069049022 0.1818707742
H 3.9824436641 -1.1823614512 -0.4485439456
H 4.3325990770 -1.9550223436 1.9384041026
H 2.8595198113 -1.1343754213 2.4094173970
C 6.0212017840 0.2718449811 1.5909553417
N 6.2788823897 0.5007724211 0.1718992676
N 6.6361827322 1.3186585209 2.4055598885
C 6.7496387042 -1.0399927840 1.9796488930
O 6.4823759702 -1.4070384731 3.3147079597
H 6.0027100190 -0.2614335709 -0.4409774317
H 5.9037618927 1.3840300900 -0.1625273873
H 7.5773327049 1.4917846092 2.0520089280
H 6.1303185329 2.2004283675 2.3234155083
H 6.4236840503 -1.8738625611 1.3483005594
H 7.8219556748 -0.8918712357 1.7889430493
H 6.7992279320 -0.6654897172 3.8611404882
C -0.3154746645 5.3394296578 -1.3546223183
N 0.6733579790 6.3552594890 -0.9703699348
N -0.5903708166 5.3454510772 -2.7926166338
C -1.7012270296 5.5315722503 -0.6730156834
O -2.6566518821 4.5922561621 -1.1475155069
H 0.4590234432 7.2530043302 -1.4014195156
H 0.6879269378 6.5045858211 0.0396098862
H -0.8487207853 6.2850542737 -3.0984588280
H 0.2298794973 5.0710795619 -3.3299243508
H -1.6188282123 5.4023769581 0.4099655281
H -2.0291150918 6.5650871016 -0.8693447005
H -2.5202831183 4.5770415897 -2.1168750732
N -0.1473471255 -2.1140101713 0.2968330205
C -0.5088489987 -2.3892027022 1.5358806197
S -0.8658461404 -4.0588679908 1.8166995476
C -0.5530206234 -4.3878489381 0.1270251202
C -0.1787697896 -3.2384550983 -0.5004786246
H 0.0673409446 -3.1845251498 -1.5476532004
O 0.0117493625 -0.1302365684 1.9500235304
C -0.6199410208 -1.2839412816 2.5424549916
S 0.1342165393 -1.7835766417 4.1391972884
C -0.0498513162 -0.1706142952 5.0474401383
C 0.4774065625 0.9504584100 4.1366751094
C -0.1567332409 1.0808823234 2.7614567429
H 0.6781458930 -0.2750448018 5.8545356290
H -1.6708266667 -1.0312043367 2.7227075937
H 0.3463405172 1.8570372712 2.1883022570
H -1.2265092876 1.3086223578 2.8119142124
H 0.3689632520 1.9109415649 4.6506311151
H 1.5522085138 0.7972489833 3.9961589260
C -1.4355541206 0.0126975036 5.7741029338
N -2.6608616494 -0.1904078823 5.0083296458
N -1.3920731120 -0.8926078945 6.9242717883
C -1.5063748763 1.4397733348 6.3757534712
O -0.3487265482 1.7473599120 7.1192462642
H -2.8740249773 0.5068703218 4.2991215313
H -2.7582470538 -1.1342021644 4.6470257661
H -2.3219703221 -0.9274601925 7.3418005064
H -1.1616890461 -1.8459471912 6.6444894456
H -1.5937729538 2.1968592422 5.5889129154
H -2.4220668964 1.4946692604 6.9820733757
H -0.2804425295 1.0489018800 7.7959435140
C -0.7446919722 -5.7850820768 -0.4413032473
N -0.4040106982 -6.7233212940 0.6327129447
N -2.1421109460 -5.9239283695 -0.8657242066
C 0.0932642068 -5.9659360583 -1.7375161540
O -0.3342895787 -5.0850770438 -2.7678840081
H -0.6633363793 -7.6757903037 0.3791631415
H 0.5978109130 -6.7263147154 0.8284612581
H -2.3222358006 -6.8885232104 -1.1505314485
H -2.7785105940 -5.7254545295 -0.0950534561
H 1.1510328727 -5.7636337604 -1.5459366264
H 0.0031670873 -7.0179154306 -2.0521723753
H -1.3089715356 -5.1590147590 -2.7585821386
N -1.7636142654 0.0848160732 -0.4966677947
C -2.1646426660 -0.0003973536 -1.7510215929
S -3.7460939969 0.6454518940 -2.0267522570
C -3.8757126066 1.0113314254 -0.3216347384
C -2.7349906861 0.6275116036 0.3145674480
H -2.5627812459 0.7518424719 1.3697991365
O 0.0844729937 -0.5297475499 -2.1941800317
C -1.2261217510 -0.5288830463 -2.7945590854
S -1.3165786072 0.4971162835 -4.3170272016
C 0.0808640228 -0.2809445636 -5.2698778227
C 1.3024641863 -0.3871559134 -4.3395740555
C 1.0964650486 -1.1538408323 -3.0431787889
H 0.3216114447 0.4933568711 -6.0014245793
H -1.4652935125 -1.5656858366 -3.0577202719
H 1.9976160600 -1.1383453641 -2.4315561216
H 0.8037208523 -2.1946944828 -3.2217374904
H 2.1296769236 -0.8464793538 -4.8902151165
H 1.6215459117 0.6299382029 -4.0854700160
C -0.3419784604 -1.5353095280 -6.1262970942
N -1.0874628354 -2.6067194010 -5.4674727766
N -1.1035433716 -0.9948959358 -7.2527777530
C 0.9209803587 -2.1822459401 -6.7478294796
O 1.7632115048 -1.2201469919 -7.3426898119
H -0.5670287000 -3.1484901653 -4.7815122790
H -1.9744092307 -2.2914432968 -5.0851378229
H -1.5292563353 -1.7717601361 -7.7584713990
H -1.8694013087 -0.4006419456 -6.9356141863
H 1.5150671080 -2.6980075710 -5.9850804892
H 0.5803634577 -2.9442450338 -7.4628023769
H 1.2242791327 -0.7817883480 -8.0256969538
C -5.0979281832 1.7247378084 0.2307546521
N -5.5615733122 2.6189896559 -0.8372664241
N -6.1017752053 0.7300872892 0.6130151624
C -4.7310678315 2.4718075890 1.5426494435
O -4.3250670432 1.5761493804 2.5684357369
H -6.4710304685 3.0156713646 -0.6040854089
H -4.9113600876 3.3981972859 -0.9674281844
H -6.9691213353 1.1990217822 0.8796028444
H -6.3307763400 0.1171817776 -0.1680502242
H -3.9083391177 3.1694907358 1.3636456104
H -5.6113917121 3.0572549014 1.8521260906
H -4.9979700512 0.8672702459 2.5582501045
