157
# extracted from Terachem optimization
Fe 0.3590051964 0.0801355903 0.2771924941
O 0.3595290062 2.1893029411 0.2801914347
C 0.3516872875 3.1121963339 1.5193463985
N 1.2291814100 4.1834498840 1.4159791838
C 1.0074288711 5.0820756901 0.2495903648
C 0.5248236186 4.2737387607 -0.9246931656
C 0.2668185577 2.9645926022 -0.8841144249
H 0.2330121681 5.8056307755 0.5421639531
H 2.2089270063 3.9567798629 1.5535396871
H -0.0349089310 2.3685706743 -1.7321979544
H 0.3619044646 4.7840587643 -1.8691980062
H 0.6041645362 2.4401818352 2.3317002496
H -0.6853941955 3.4519750764 1.5701507648
C 2.2761808028 5.8945856720 -0.0196103459
C 3.0376836445 5.6637923060 -1.0926459749
C 2.6081064066 6.9551526076 1.0504134882
N 1.4134587183 7.7896750629 1.2297149645
O 2.8481408941 6.3013087125 2.2997912966
C 3.8840691590 7.7478394237 0.7620364639
H 3.9312971507 6.2421820267 -1.2971565178
H 2.7912115785 4.8927518003 -1.8171595428
H 1.6106275821 8.4858327758 1.9494183865
H 1.2035907172 8.3042171919 0.3739052088
H 1.9763583327 6.0139389783 2.6250749621
H 4.7598325550 7.0944735969 0.7080410429
H 3.8014318827 8.3145030524 -0.1701841927
H 4.0451327819 8.4506944239 1.5844437979
O 2.4523995029 0.0948317099 0.2728654484
C 3.3594114275 -1.0958190048 0.6402920633
N 4.4397217691 -1.2551477576 -0.2194205029
C 5.3442124559 -0.0787226141 -0.3387707290
C 4.5425397715 1.1903573375 -0.2214557297
C 3.2327117454 1.2330999336 0.0326130405
H 6.0653853219 -0.1335888838 0.4896391986
H 4.2162849374 -1.6641917259 -1.1211745299
H 2.6427425590 2.1343687610 0.0879004790
H 5.0589559448 2.1393437597 -0.3306578127
H 2.6719968732 -1.9321288957 0.6112300000
H 3.6830759602 -0.8589488540 1.6555007525
C 6.1648769578 -0.1910922170 -1.6262451145
C 5.9414097092 0.6122740860 -2.6696276402
C 7.2316637796 -1.3057478780 -1.6192329171
N 8.0690373518 -1.1041794928 -0.4297668899
O 6.5876152824 -2.5719702618 -1.4627782928
C 8.0213632832 -1.4161171136 -2.9246990553
H 6.5249200847 0.5480439829 -3.5809929635
H 5.1702747872 1.3773781453 -2.6499683314
H 8.7605315431 -1.8539618802 -0.3929776757
H 8.5889376417 -0.2290525663 -0.5012358393
H 6.3065688621 -2.6199047343 -0.5316429009
H 7.3657105187 -1.6352507585 -3.7726535339
H 8.5809222570 -0.4992465116 -3.1331054663
H 8.7310175473 -2.2430671184 -2.8304566838
O 0.3770847221 -2.0151422646 0.2756975323
C 0.3112721985 -2.9415142141 1.5122158035
N -0.5722148847 -4.0005971666 1.3544394903
C -0.3007192617 -4.8933981263 0.1929979688
C 0.3066450361 -4.0976788288 -0.9312837397
C 0.5885117102 -2.7936656861 -0.8698349810
H 0.4233600633 -5.6507250114 0.5272881660
H -1.5559617438 -3.7712226498 1.4494644931
H 1.0382006802 -2.2292351285 -1.6754219277
H 0.5713021088 -4.6228747109 -1.8443358739
H 0.0431013589 -2.2609142675 2.3116131032
H 1.3397594388 -3.2948415792 1.6116710975
C -1.5731007128 -5.6575215886 -0.1783922585
C -2.2475803953 -5.3875236633 -1.2992184856
C -2.0109251703 -6.7223290901 0.8482968153
N -0.8627573569 -7.6052812735 1.0865757020
O -2.3032459937 -6.0792324092 2.0928254373
C -3.2952836100 -7.4605496121 0.4670776709
H -3.1421593461 -5.9318108021 -1.5797518525
H -1.9230016879 -4.6147746077 -1.9904789525
H -1.1302169139 -8.3021650744 1.7826137260
H -0.6209481281 -8.1168039527 0.2374624949
H -1.4427362824 -5.8511893603 2.4876633436
H -4.1400205610 -6.7724791144 0.3677380080
H -3.1746716264 -8.0160243314 -0.4677543523
H -3.5355024789 -8.1683771360 1.2654510537
O -1.7503444895 0.0873020823 0.2602998794
C -2.6283342607 1.3267522709 0.5065104926
N -3.7893742475 1.3574174654 -0.2589330091
C -4.6936959319 0.1860216938 -0.0889695038
C -3.8655878130 -1.0643245340 0.0455907728
C -2.5368335135 -1.0683551276 0.1736035740
H -5.2680274066 0.3567185968 0.8328194049
H -3.6580803198 1.6019049188 -1.2359988607
H -1.9214422381 -1.9534813204 0.2165124689
H -4.3669398329 -2.0274328122 0.0467701135
H -1.9529985687 2.1428369314 0.2786356958
H -2.8629443068 1.2668119658 1.5714060812
C -5.7109599598 0.1578830929 -1.2299840319
C -5.6406909926 -0.7513872984 -2.2057512483
C -6.7737206036 1.2750120453 -1.1761234738
N -7.3812844796 1.2430869025 0.1618475733
O -6.1322995877 2.5433506668 -1.3117247236
C -7.7890157090 1.2161411289 -2.3185283950
H -6.3601892067 -0.7828470012 -3.0157543757
H -4.8600689167 -1.5063764192 -2.2322653038
H -8.0604632941 2.0024381586 0.2221885860
H -7.9007531482 0.3752136612 0.2987812669
H -5.6473400562 2.6940419100 -0.4810294287
H -7.3027454816 1.3110506736 -3.2937885760
H -8.3652669607 0.2861773481 -2.2948221935
H -8.4801973739 2.0569439532 -2.2095440272
O 0.3546059048 0.0557551679 2.3756956043
C -0.9022458035 0.0659615270 3.2878615280
N -0.7570766604 -0.7020711055 4.4297497032
C 0.3900630629 -0.3667534123 5.3146739454
C 1.5295168011 0.1546564791 4.4822411231
C 1.4895768430 0.3084451400 3.1560642114
H 0.0570597391 0.4221394217 6.0053214586
H -0.9100074121 -1.6999227519 4.3359097069
H 2.3142259300 0.6760704732 2.5618846771
H 2.4439461117 0.4468134731 4.9899947664
H -1.6868685338 -0.2954080389 2.6307772839
H -1.0132712876 1.1271596221 3.5243348804
C 0.7457056958 -1.5782881911 6.1822297109
C 1.8681522987 -2.2739097240 5.9831426490
C -0.2979434279 -1.9339596353 7.2596333919
N -0.5216588967 -0.7323081522 8.0716215050
O -1.5439121374 -2.2364058790 6.6199059949
C 0.0509820678 -3.1815732289 8.0727387814
H 2.1325845117 -3.1265588134 6.5978491567
H 2.5758862767 -2.0116368114 5.2020487917
H -1.2057802149 -0.9508326602 8.7969321613
H 0.3362430548 -0.4586177463 8.5509752219
H -1.9379272653 -1.3771346604 6.3862224253
H 0.1398026816 -4.0657399236 7.4346650004
H 0.9827617295 -3.0481448026 8.6302916141
H -0.7581477312 -3.3657420836 8.7852867282
O 0.3446429825 0.0985953213 -1.8236206310
C -0.8937941547 -0.2316631906 -2.6742986085
N -0.9369811413 0.4578645588 -3.8834089386
C 0.2314253061 0.2439441655 -4.7813027664
C 1.4814101258 0.1139700673 -3.9541327422
C 1.4965155545 0.0759214075 -2.6198369705
H 0.0506999576 -0.6935159127 -5.3267696664
H -1.1822800743 1.4407358359 -3.8088600172
H 2.3898767183 0.0111057143 -2.0188096111
H 2.4371685574 0.0332880806 -4.4630908827
H -1.7131785257 0.0221596426 -2.0134110964
H -0.8150240512 -1.3095600701 -2.8302164304
C 0.2752670710 1.3513209752 -5.8354475342
C 1.2034606405 2.3110838623 -5.8000103047
C -0.8447652999 1.2832433759 -6.8940088750
N -0.8251672192 -0.0681623597 -7.4716328602
O -2.1107602890 1.4426718232 -6.2523254325
C -0.7800807272 2.4020983733 -7.9346708593
H 1.2484038640 3.0959531742 -6.5462896253
H 1.9613026116 2.3458744233 -5.0224348331
H -1.5807393594 -0.1349955214 -8.1544526075
H 0.0444050456 -0.2265360499 -7.9819781099
H -2.2649136385 0.6237618211 -5.7485383818
H -0.8631808626 3.3888140439 -7.4697302060
H 0.1469271103 2.3569939847 -8.5143346229
H -1.6249532931 2.2861088408 -8.6197729527
