139
# extracted from Terachem optimization
Fe 0.0778486845 -0.0845964500 -0.1238320129
O 0.3490542998 2.1021108411 -0.0781279087
C 1.7291668338 2.5215491469 -0.3131645349
O 2.1449018884 3.0835813561 0.9042219784
C 0.9829650135 3.6282790239 1.4574925469
C -0.0795993304 3.0421471892 0.9033572963
H -1.1395910902 3.1283629175 1.0599638979
H 1.6903802338 3.3063496836 -1.0848103858
O 2.1764437844 0.1181176999 -0.1393174810
C 2.6051130572 1.3607864679 -0.7751101264
C 4.0996856871 1.5010840590 -0.4582830736
C 4.5239745631 0.0434101097 -0.1970279185
C 3.3127886711 -0.5094012648 0.5523401492
H 3.2737252065 -0.2154378654 1.6037883613
H 3.1857101241 -1.5835972765 0.4573530232
H 4.5594522051 -0.4773747387 -1.1605231459
H 4.6588809818 1.9501155385 -1.2806571603
H 4.2368790303 2.1176672981 0.4316405525
H 2.4403874510 1.2255399557 -1.8466536326
C 5.9404554501 -0.1323361465 0.4431235774
N 6.8875874014 0.2814615774 -0.5879706212
C 6.1491460773 0.7472648225 1.6832507817
C 6.0758196218 -1.6515186721 0.8230513776
O 5.2520531524 -2.0420538679 1.8880302661
O 5.7500846989 -2.4014941932 -0.2683865880
Cl 7.8467673517 -2.0134269403 1.3466173670
H 7.8250009189 0.3586307830 -0.1971448383
H 6.9389652717 -0.4227596306 -1.3232312056
H 5.3378216030 0.6456018113 2.4106614467
H 7.0898350081 0.4944315383 2.1811350322
H 6.2121562095 1.7954727971 1.3826682156
H 5.7000831399 -1.8426434377 2.7272456126
H 5.5524271449 -3.3139986586 0.0155355081
C 1.2134829770 4.7178539429 2.4935672145
N 1.8626608839 4.0934164028 3.6347748063
C 2.1812470980 5.7545305321 1.8825215575
C -0.1647766315 5.4081914332 2.8136411364
O -0.7569884986 6.0390819908 1.7284220904
O -1.0656243070 4.4600338172 3.2673004275
Cl 0.0974795523 6.6732072052 4.1621938395
H 2.2553779609 4.8028513845 4.2498691719
H 1.2230147730 3.5195122563 4.1809187370
H 1.7991369605 6.1508535342 0.9375169327
H 2.3389551679 6.5835744003 2.5771772973
H 3.1416209122 5.2737068444 1.6936260420
H -0.3650237638 6.9199720789 1.6052096246
H -1.9460290883 4.8774186699 3.2151581487
O 0.0019850604 -2.2956865741 0.1092447210
C -0.5230926674 -2.7157143359 1.4011979335
O 0.5734907204 -3.3013657198 2.0604055471
C 1.3536962110 -3.8438238642 1.0340140601
C 1.0347318227 -3.2491323158 -0.1167583759
H 1.3958886346 -3.3491768345 -1.1245783509
H -1.2803280612 -3.4915415054 1.2030949749
O -0.4050684150 -0.3113597900 1.8948049294
C -1.1604930914 -1.5459099433 2.1373044369
C -1.2455402126 -1.6808104919 3.6584231749
C -1.1617614736 -0.2118046966 4.1088708090
C -0.0782116263 0.3320978808 3.1802899233
H 0.9336226231 0.0334556849 3.4669546104
H -0.1207976940 1.4062576203 3.0198047554
H -2.0967923246 0.2807150566 3.8155212067
H -2.1694307059 -2.1600387478 3.9866848136
H -0.3965261477 -2.2612348441 4.0279378650
H -2.1471732089 -1.3883935119 1.6919519690
C -1.0315411611 0.0141449532 5.6469507708
N -2.3149268572 -0.4027138451 6.2041994526
C 0.0784372084 -0.8316462321 6.2875130468
C -0.7376920150 1.5444201921 5.8596536022
O 0.5547994606 1.9286712867 5.4716429173
O -1.6334008649 2.2702612139 5.1290709257
Cl -0.9028449251 1.9690458479 7.6824248000
H -2.2632173558 -0.4503144436 7.2200182003
H -3.0377866756 0.2814982387 5.9839419968
H 1.0409084276 -0.7124987802 5.7808813353
H 0.2089407885 -0.5593953421 7.3393193689
H -0.1993607757 -1.8876522228 6.2574103141
H 1.1779081962 1.7320519556 6.1917788042
H -1.3117343545 3.1886631692 5.0471362917
C 2.3025791183 -4.9583934220 1.4510294621
N 3.1956215408 -4.4162054003 2.4607942773
C 1.4549222061 -6.0776034592 2.0941669073
C 3.0273938869 -5.5040308277 0.1640437857
O 2.1739408887 -6.0099093590 -0.8048213080
O 3.7397055135 -4.4751656555 -0.4245796589
Cl 4.2201935726 -6.8500888333 0.6675887144
H 3.6867142970 -5.1696219863 2.9364780830
H 3.8881647291 -3.7819786165 2.0679513293
H 0.7070989103 -6.4652196198 1.3962422122
H 2.0961222018 -6.9010101250 2.4186239065
H 0.9393113140 -5.6748510243 2.9672904044
H 1.9154914619 -6.9184668007 -0.5761885342
H 4.0290223135 -4.8021903000 -1.2974041110
O -2.1829710175 -0.0225992603 -0.4185895181
C -2.5175549128 -0.0866985419 -1.8280598676
O -2.6196721659 1.2619511989 -2.2343763696
C -3.0604391967 1.9402284070 -1.0952501427
C -2.8249401618 1.1861354507 -0.0204173989
H -3.0048586073 1.3215097542 1.0298257822
H -3.5031042889 -0.5712840058 -1.9133294068
O -0.1375536463 -0.4120965922 -2.1707313041
C -1.4638983260 -0.8770331871 -2.5767889219
C -1.5116053429 -0.7367324484 -4.0990926373
C -0.0258881719 -0.8030071574 -4.5038399187
C 0.6521981257 -0.0489644762 -3.3599678518
H 0.6002627787 1.0361657374 -3.4803343036
H 1.6758040713 -0.3627129888 -3.1676517797
H 0.2974085930 -1.8491430739 -4.4502318258
H -2.0995958387 -1.5239644718 -4.5705625604
H -1.9498730069 0.2251648284 -4.3746388651
H -1.5424074648 -1.9215197028 -2.2557000052
C 0.2512677300 -0.3170259012 -5.9673156896
N -0.6295513817 -1.1173616348 -6.8124693568
C -0.0780896621 1.1682859722 -6.1837939528
C 1.7637895229 -0.5908386056 -6.2810148631
O 2.5518450750 0.2320961841 -5.4926995300
O 2.0248150188 -1.9443531721 -6.0790354692
Cl 2.1407860552 -0.2237276589 -8.0686612027
H -0.6325874777 -0.7541594284 -7.7636547328
H -0.2863257562 -2.0757734065 -6.8661901122
H 0.5328979084 1.8274822917 -5.5638303886
H 0.1073253753 1.4401965306 -7.2260885943
H -1.1346056147 1.3568470798 -5.9789133754
H 3.4860783265 0.1095065169 -5.7367453873
H 2.7082471172 -2.2477534145 -6.6998278138
C -3.6157540729 3.3411477028 -1.3231642325
N -2.4671846968 4.2285993137 -1.5092363137
C -4.4599508553 3.3370630473 -2.6110022147
C -4.5110752904 3.7253642049 -0.0899267805
O -5.6338106023 2.9394450824 0.0838690879
O -3.7532404089 3.6268939370 1.0605769717
Cl -5.0652413807 5.5077150275 -0.2924488124
H -2.7679170547 5.0816532335 -1.9771799519
H -2.0774578144 4.5106475880 -0.6114349583
H -5.2376465186 2.5693628928 -2.5748477563
H -4.9286827469 4.3130878672 -2.7597997664
H -3.8131606183 3.1276547048 -3.4644671500
H -6.3416252781 3.2354130833 -0.5128616361
H -4.3744387235 3.7280158708 1.8059168628
