103
# extracted from Terachem optimization
Fe 0.1930975304 0.1269257002 0.0284187127
N 0.2667825656 2.1080101810 -0.1242089678
C 1.4620476866 2.5888313373 -0.3758398664
N 1.7124848221 3.8798055102 -0.6309037063
C 0.6549826070 4.8923251822 -0.8494641738
C -0.6729328074 4.3041179620 -0.4604005326
C -0.8149623403 3.0109063218 -0.1470342919
H 0.8863888546 5.7719297547 -0.2376285427
H 2.6115377565 4.1495516855 -1.0189708220
H -1.7658729000 2.5837490246 0.1425027910
H -1.5277700880 4.9702739530 -0.4481930433
N 2.1420278665 0.3292551329 -0.2781518589
C 2.5556195596 1.5757955089 -0.3291115882
N 3.8322766496 1.9671083804 -0.3162533912
C 4.9649308746 1.0224429459 -0.3236025968
C 4.4765773615 -0.3114626662 -0.8802792318
C 3.1670351163 -0.7266848246 -0.1981935966
H 5.3307358037 0.9143416594 0.7026894838
H 4.3298289363 -0.2194130087 -1.9605331253
H 5.2355196040 -1.0798837009 -0.7150369814
H 4.0897996859 2.9445208425 -0.2372772885
H 3.3415187419 -0.9699102511 0.8593831792
H 2.7651698931 -1.6230491103 -0.6740748284
C 6.1062090191 1.6920381407 -1.1235447742
O 5.7409987815 1.7387058532 -2.4525676515
O 6.2720930902 2.9390978905 -0.5328711147
Cl 7.6296813743 0.6976920742 -0.9152908204
H 6.5028319336 1.9845314108 -3.0072875060
H 7.1063317336 3.3549564730 -0.8148939568
C 0.7511085291 5.3564422101 -2.3327536232
O 2.0618705408 5.7320085296 -2.6291211136
O 0.3994333665 4.3044084045 -3.1402503389
Cl -0.3696529997 6.7949880835 -2.5439142842
H 2.1705368980 6.6956128488 -2.5427958049
H 0.6130161526 4.5570233426 -4.0580839375
N 0.2752046093 -1.8525711014 0.2125776597
C 0.4542385974 -2.2750396053 1.4437041266
N 0.4822638778 -3.5667835175 1.7953795936
C 0.0922624582 -4.6738568630 0.8920831150
C -0.0506180130 -4.1339953699 -0.5033742551
C 0.0250581450 -2.8256801074 -0.7746610451
H 0.8673587021 -5.4477031054 0.9385583003
H 0.4305861168 -3.8244370824 2.7762705110
H -0.0842106152 -2.4310912901 -1.7757376716
H -0.2338194022 -4.8489057728 -1.2970265719
N 0.5270519476 0.0281557481 1.9654473039
C 0.6733588800 -1.1875478687 2.4427579168
N 1.0171950713 -1.4701347444 3.7020494620
C 1.0567539467 -0.4699758856 4.7897430198
C 0.3956846257 0.8230130752 4.3129385606
C 0.8212267706 1.1457744698 2.8761204421
H 2.1035484719 -0.3056838173 5.0621229940
H -0.6919395142 0.7196285271 4.3659677801
H 0.6798926627 1.6428968141 4.9766383686
H 1.1877235411 -2.4217352038 4.0067029495
H 1.8988589137 1.3617969823 2.8337117642
H 0.2961931843 2.0287927160 2.5092445340
C 0.3822888077 -1.1272488925 6.0174410714
O -0.9656317451 -1.2596139134 5.7502346609
O 1.0469557454 -2.3357427178 6.1933630890
Cl 0.6441007008 -0.0594532299 7.4788515805
H -1.4419801995 -1.5409304472 6.5518395101
H 0.9094283838 -2.6897347521 7.0899842102
C -1.2033216946 -5.3045954801 1.4830625925
O -1.0023219658 -5.6310325653 2.8254940971
O -2.1966088540 -4.3744003568 1.3904602614
Cl -1.5782882328 -6.8322928678 0.5247925852
H -0.7303201451 -6.5615941085 2.9143654703
H -2.9578969562 -4.6761458105 1.9195008995
N -1.8083465698 -0.0450414498 0.1876590443
C -2.4761406050 -0.0352345004 -0.9465610320
N -3.8035000161 -0.1642320113 -1.0419443223
C -4.6858760926 -0.5247579121 0.0888626499
C -3.8849215633 -0.4626349123 1.3574643123
C -2.5629659016 -0.2528584833 1.3623527494
H -5.5240867971 0.1814927171 0.1150542784
H -4.2264241792 -0.3425502009 -1.9478241881
H -2.0049144148 -0.2128714998 2.2871499847
H -4.4190867813 -0.6001798417 2.2903365319
N -0.3415714443 0.1751382042 -1.9042362809
C -1.6283902994 0.1819921279 -2.1527159800
N -2.1831861550 0.3783199594 -3.3537063874
C -1.4022849784 0.4993290378 -4.5987172433
C -0.0101264749 -0.0778087014 -4.3577227263
C 0.5620717429 0.4448873915 -3.0362289829
H -1.3528511757 1.5582362887 -4.8713442998
H -0.0724799709 -1.1698941516 -4.3372286615
H 0.6497604467 0.2002181246 -5.1828688386
H -3.1845680060 0.4775503611 -3.4707464651
H 0.7420655707 1.5272113993 -3.0900413008
H 1.5184061549 -0.0381598495 -2.8299767368
C -2.2077177795 -0.2049951513 -5.7136460596
O -2.1803517160 -1.5643055184 -5.4877907300
O -3.4773250565 0.3572229900 -5.6574139436
Cl -1.4290610991 0.1893766589 -7.3290074730
H -2.5191236185 -2.0461764520 -6.2632774916
H -3.9978101676 0.1321191855 -6.4491457711
C -5.2948009450 -1.9210659984 -0.2401731350
O -5.8823406947 -1.8935945441 -1.5057237111
O -4.2800208163 -2.8339237148 -0.2376621308
Cl -6.5755603089 -2.2918243200 1.0312172556
H -6.8367463522 -1.7143855384 -1.4368476719
H -4.6021965312 -3.6542717302 -0.6550054560
