145
# extracted from Terachem optimization
Fe 0.2351936556 0.0415895211 0.0887637561
O 0.5384808781 2.2546587267 0.0898954660
C 1.8313913507 2.6516371844 0.6071474375
C 2.3001839469 3.8625591279 -0.2246303758
C 1.4213726410 3.7843723276 -1.4914833966
C 0.1186855945 3.1934866692 -0.9518941228
H -0.5139966491 3.9495472962 -0.4865048172
H -0.4415162810 2.6166270503 -1.6883775296
H 1.8588738279 3.0288458148 -2.1627069679
H 3.3684009083 3.8188883165 -0.4397693043
H 2.0912791387 4.7862295737 0.3120705226
H 1.6998932661 2.9295476193 1.6608821987
N 2.3322349711 0.2591824486 0.3629430108
C 2.7652814608 1.4567750997 0.5936874236
O 4.0181191633 1.7768179247 0.8766724572
C 4.9962853906 0.7286913385 1.2957157500
C 4.5489803575 -0.6060545955 0.7665541358
C 3.2912259370 -0.7899715535 0.3596855623
H 4.9851187860 0.7490868731 2.3908193907
H 2.9122753781 -1.7403372282 0.0010415681
H 5.2818153146 -1.4010967538 0.7592662055
C 6.3678358187 1.2065597452 0.7966563614
N 6.5483484658 0.8295703481 -0.6066586103
C 7.5384401992 0.6081239733 1.6576630073
O 7.0778052677 -0.6545711681 2.1348941618
O 8.6869273430 0.4379636512 0.8727627402
C 7.9236792703 1.5256630058 2.8129386505
H 6.3851679047 2.2962251227 0.9543233944
H 7.3301651764 1.3535253839 -0.9958285992
H 5.7280053012 1.0893976905 -1.1510157292
H 7.8219219453 -1.0614949986 2.6110301593
H 8.4298024671 -0.1587944101 0.1450342667
H 8.3150058878 2.4757322998 2.4388139153
H 7.0599258360 1.7233511093 3.4557120774
H 8.7055644444 1.0532791294 3.4162082916
C 1.3093455178 5.0834115947 -2.3246558472
N 2.6745729327 5.5604611258 -2.5962764928
C 0.4822322823 6.2848211946 -1.7065534268
O 0.3527361214 6.0636989151 -0.2967668538
O 1.1406912165 7.4992443280 -1.9278709858
C -0.8969324390 6.4182705328 -2.3485255828
H 0.7845989899 4.8084527820 -3.2546724888
H 2.6645685412 6.1895309071 -3.3969182087
H 3.2855007850 4.7850631136 -2.8455874762
H 0.0462402824 6.9107740076 0.0709064168
H 2.0742596982 7.3495332529 -1.6786261778
H -0.8077954790 6.6108751784 -3.4217188711
H -1.4865976758 5.5080492746 -2.1971066649
H -1.4337142181 7.2595498215 -1.8989075875
O 0.2444087826 -2.1847473092 0.4366210240
C 0.3911052098 -2.5349722540 1.8332081672
C -0.4529232623 -3.8105853532 2.0710076520
C -1.3129256196 -3.9223631206 0.7911663075
C -0.4076745147 -3.2840226698 -0.2640833511
H 0.3602548000 -3.9784125704 -0.6098177786
H -0.9353138215 -2.8452981729 -1.1122415263
H -2.1856944663 -3.2612573291 0.9110442012
H -1.0491690987 -3.7357580537 2.9814077856
H 0.1977755167 -4.6791850701 2.1559087981
H 1.4529993130 -2.7374514936 2.0244575901
N -0.2093765922 -0.1732041008 2.1769273408
C 0.0168656639 -1.3412526707 2.6875371428
O -0.0307421263 -1.6385247127 3.9783679599
C 0.0249114647 -0.5479562962 4.9962966588
C -0.5668459045 0.6997761032 4.4021187522
C -0.6281152484 0.8467465422 3.0764314994
H 1.0898628395 -0.4175651061 5.2202355739
H -1.0044680271 1.7418996246 2.5946714388
H -0.8975979175 1.4681657548 5.0870573735
C -0.6838417292 -1.1006704969 6.2394576457
N -2.1339173255 -0.9516108094 6.0999020973
C -0.2030306292 -0.3819383053 7.5504095924
O 0.1341575328 0.9513360216 7.1772268613
O -1.2295636505 -0.3730555818 8.5060994055
C 0.9867056060 -1.0921675201 8.1869744590
H -0.3692366308 -2.1525171413 6.3246981917
H -2.5960894981 -1.5350589508 6.7949756026
H -2.4359760249 -1.2942547660 5.1899444882
H 0.3606778497 1.4225965231 7.9974727345
H -1.9727700009 0.1098863712 8.0980878342
H 0.7146890843 -2.1054055168 8.4956023674
H 1.8274525266 -1.1447973532 7.4878429512
H 1.3100982001 -0.5445973638 9.0781249577
C -1.8741584231 -5.3285685532 0.4681861210
N -2.5009356392 -5.8678513627 1.6853676349
C -0.8584468469 -6.4064187862 -0.0781200860
O 0.4501713681 -6.0587130300 0.3868384382
O -1.2028189141 -7.6778536015 0.3936412928
C -0.8774082307 -6.5004734880 -1.6030873839
H -2.6136748548 -5.1881360329 -0.3379852382
H -3.1937495503 -6.5693521285 1.4319622672
H -2.9982957842 -5.1410094469 2.1952982687
H 0.9991501298 -6.8483590050 0.2385816035
H -1.2964845787 -7.5861395699 1.3625517355
H -1.8697579858 -6.7901418570 -1.9605561024
H -0.5964052424 -5.5464947414 -2.0605177979
H -0.1653574998 -7.2637975956 -1.9317104119
O -1.8355829059 0.3497684090 -0.5271273071
C -2.2017534169 0.2675424175 -1.9192144679
C -3.3854187087 -0.7115727359 -1.9692335138
C -4.0162583452 -0.6129129765 -0.5446131339
C -3.0783199413 0.3397839983 0.2301144779
H -3.4616159063 1.3600957837 0.2682325380
H -2.8185867830 -0.0019978417 1.2324555218
H -3.9330396311 -1.6039056728 -0.0797007298
H -3.0338552218 -1.7293482047 -2.1652510093
H -4.0874968396 -0.4362741170 -2.7540408819
H -2.5408263399 1.2546814038 -2.2532042769
N 0.1607099714 -0.2867374356 -2.0852472139
C -0.9737485496 -0.1310256298 -2.6870934856
O -1.2072886765 -0.3102198743 -3.9803874023
C -0.0619608636 -0.3383666993 -4.9375967507
C 1.1614902005 -0.8334695627 -4.2159244669
C 1.2356458729 -0.7625081667 -2.8847057617
H 0.0610402769 0.6985731043 -5.2708571468
H 2.1103529003 -1.0730291882 -2.3267807905
H 1.9762079551 -1.2065612563 -4.8205574100
C -0.5311891393 -1.1938716657 -6.1215708728
N -0.3983031699 -2.6147318445 -5.7921542795
C 0.2773474361 -0.8807979505 -7.4335278702
O 1.5588703148 -0.4120463540 -7.0178207435
O 0.4198054643 -2.0383815235 -8.2127343506
C -0.4258517574 0.1525501371 -8.3072434486
H -1.5736041135 -0.8960681985 -6.3157934023
H -0.9011185205 -3.1620649390 -6.4887124263
H -0.8465737688 -2.8070483251 -4.8983752249
H 2.0877657921 -0.2990540123 -7.8263311314
H 0.8780164593 -2.6900691003 -7.6497918601
H -1.3926206021 -0.2255968916 -8.6510274474
H -0.5815789348 1.0857975337 -7.7563623122
H 0.1857000912 0.3656087281 -9.1896740937
C -5.5239652400 -0.2633294694 -0.4949286567
N -6.2355109561 -1.2217342730 -1.3568501919
C -5.9547746489 1.1968018205 -0.9359602203
O -4.8502655687 1.7935852612 -1.6396279382
O -7.0662339078 1.1505113838 -1.7790573012
C -6.3481462001 2.0676649736 0.2547542106
H -5.8281525513 -0.3642875669 0.5591521959
H -7.2129580724 -1.2832228647 -1.0778120468
H -5.8477000235 -2.1582968362 -1.2636995813
H -5.2363196865 2.5501036686 -2.1140536081
H -6.9154269333 0.3994387016 -2.3881767932
H -7.1937656515 1.6281277324 0.7918085730
H -5.5107661796 2.1849848205 0.9500534846
H -6.6512558819 3.0587963575 -0.0969615747
