166
# extracted from Terachem optimization
Fe 0.2033410851 -0.3341827847 -0.4769177772
N 0.6456559959 1.5882047103 -0.6947142292
C 1.8659607404 1.9855814673 -0.5467812878
N 2.0776140276 3.3168559833 -0.7566082290
C 0.7604315547 3.9868219513 -0.7880099610
C -0.1637902318 2.7627052962 -1.0534489492
H -1.0742626532 2.8099025603 -0.4626254815
H -0.4528846976 2.6948680709 -2.1064668673
H 0.7254716118 4.6894815330 -1.6247868491
H 2.8662462484 3.7774363883 -0.3244425142
O 2.3329816013 -0.3020733081 -0.4010042623
C 2.9678703045 0.9857860050 -0.2903266051
C 3.6803620418 1.1831511459 1.0303241206
C 3.9429462368 0.1868618737 1.8853865102
C 3.5071267387 -1.2213708532 1.5487719206
C 3.1911213732 -1.3771995764 0.0733194353
H 4.0036723152 2.2032768781 1.2222061401
H 3.6917441130 1.0763055847 -1.1194877066
H 2.6368152015 -2.2916097258 -0.1217370455
H 4.1026833268 -1.3605793375 -0.5385698296
H 4.2896338280 -1.9341862076 1.8249338931
H 2.6390007105 -1.4935903589 2.1589636141
C 4.6301143785 0.3779579273 3.2561494171
N 4.0298820333 1.5178092933 3.9522232317
O 4.3867247812 -0.7708311207 4.0445946431
C 6.2091783471 0.4991001335 3.1570767632
C 6.8557609350 -0.8317676142 2.7570086535
C 6.6735521691 1.6299955847 2.2275826149
O 6.5716751768 0.8389341436 4.5023535914
H 4.6566974618 1.7666252007 4.7192013930
H 3.9473865864 2.3322457961 3.3499604594
H 3.6194783210 -0.5849585919 4.6215839621
H 6.5889416989 -1.1177537962 1.7329037023
H 7.9487592106 -0.7410365043 2.7873417209
H 6.5482936401 -1.6210493615 3.4445747965
H 6.2361820464 2.5898750907 2.5232824641
H 7.7618382166 1.7339850136 2.3030508271
H 6.4364480065 1.4342898197 1.1780201613
H 7.5381035398 0.8018083034 4.5759702785
C 0.4073995448 4.7508770307 0.5262370993
N -1.0565547925 4.8832852606 0.5880021179
O 0.8336921155 3.9303043522 1.6017433069
C 1.1170326537 6.1552822881 0.6908494132
C 2.6507329862 6.0805557180 0.6539594678
C 0.6149052420 7.2183483368 -0.2926722748
O 0.6980706053 6.4957555301 2.0318140127
H -1.2822747856 5.4647581571 1.3960969066
H -1.4006411596 5.3911523777 -0.2272330759
H 0.8307686913 4.5140799713 2.3849664992
H 3.0294827267 5.9022202274 -0.3592703320
H 3.0760270084 7.0390853245 0.9733367049
H 3.0224423301 5.3086112909 1.3345639607
H -0.4599581555 7.3860361344 -0.1888660045
H 1.1161649076 8.1724634949 -0.0938500874
H 0.8351697832 6.9561004050 -1.3333219821
H 1.1112263739 7.3335668354 2.2958795384
N -0.0141389597 -2.2880525188 -0.0852361137
C -0.3480965824 -2.6036804639 1.1224810826
N -0.5471571480 -3.9261755266 1.3583547937
C -0.0313280600 -4.6877533773 0.2027943593
C 0.1018324803 -3.5414773308 -0.8538490062
H 1.0526392903 -3.6074181849 -1.3838182766
H -0.7086192110 -3.5881765064 -1.5906455289
H -0.7741585015 -5.4253953147 -0.1150722660
H -0.4498954237 -4.2922578604 2.2939422136
O 0.0235229989 -0.3398527992 1.6138561430
C -0.6329585059 -1.5140220123 2.1269342179
C -0.2246102625 -1.8064533902 3.5470890685
C 0.2748871793 -0.8752236716 4.3726101487
C 0.4753767084 0.5371374024 3.8680827434
C -0.1827667458 0.7842415835 2.5111491230
H -0.3516047155 -2.8262442822 3.8942317714
H -1.7239895241 -1.3414402690 2.0888151643
H 0.2363219361 1.6552327851 2.0102087690
H -1.2668373236 0.9262082763 2.6198571807
H 0.0300895252 1.2563144316 4.5626882726
H 1.5464088931 0.7751533283 3.8381659879
C 0.7733328590 -1.2876841883 5.7751311450
N 0.2767360146 -2.6264415772 6.0799829359
O 2.2091269910 -1.4031233422 5.7224537311
C 0.5027407837 -0.2980839503 6.9864196121
C 1.3284889865 0.9992461237 6.9813830082
C -0.9904918721 -0.0029344599 7.1396681951
O 0.8648079003 -1.0318934630 8.1662730983
H 0.5067307342 -2.7979605026 7.0608341779
H -0.7409930237 -2.6433584982 6.0324400119
H 2.3793327677 -2.2941098257 5.3662919684
H 1.0066677018 1.7201869764 6.2279304541
H 1.2108089842 1.4695784359 7.9623118954
H 2.3904353097 0.7961394204 6.8188935305
H -1.5658945960 -0.9237014232 7.2771308740
H -1.1478053632 0.6162976098 8.0269764024
H -1.3904193903 0.5315527916 6.2714508454
H 1.8356595945 -1.0954417055 8.1740166248
C 1.3191220736 -5.4190243070 0.4641641201
N 1.8318558310 -5.7953162163 -0.8591745630
O 2.2003408958 -4.4639091829 1.0214991712
C 1.2704833584 -6.6524011014 1.4672642055
C 0.7068063194 -6.3159328635 2.8550238281
C 0.5534060995 -7.8802935887 0.9003808235
O 2.6648165736 -6.9531221820 1.7126430052
H 2.7752706765 -6.1663505290 -0.7666492578
H 1.2609551362 -6.5156172529 -1.2986946636
H 2.9223160662 -4.9939507660 1.4159614535
H -0.3853754807 -6.2248187484 2.8381888352
H 0.9503076655 -7.1341862753 3.5376893139
H 1.1573146863 -5.4048254611 3.2600368242
H 1.0284330639 -8.2492909762 -0.0159289202
H 0.5733411581 -8.6908417228 1.6352024915
H -0.4966182542 -7.6682746673 0.6715010231
H 2.9550602547 -7.6493679591 1.1024827509
N -1.7277745744 -0.0555653889 -0.8119089537
C -2.1541941518 -0.3032811023 -2.0076596415
N -3.4857642490 -0.1114267906 -2.2141957454
C -4.0039453735 0.6873011165 -1.0809727614
C -2.8756500224 0.4405360769 -0.0323460809
H -2.6118674708 1.3405909002 0.5275005512
H -3.1855957513 -0.3242156121 0.6903449202
H -4.9462441972 0.2615045585 -0.7265606781
H -3.7932969056 0.1512908489 -3.1412148273
O 0.1076861424 -0.6677761645 -2.5062868621
C -1.2083809231 -0.8204177420 -3.0701306876
C -1.3826356703 -0.0902453568 -4.3765217911
C -0.4052128525 0.5448730611 -5.0315571071
C 0.9989501164 0.5031734227 -4.4682944509
C 1.1664693975 -0.6525819672 -3.4931244544
H -2.3981098457 -0.0635764999 -4.7548328895
H -1.4068769561 -1.8978178411 -3.2080444325
H 2.0819545134 -0.5773638950 -2.9066396540
H 1.1539640116 -1.6173460225 -4.0160134852
H 1.7399584835 0.3710718796 -5.2610900130
H 1.2309416033 1.4615159547 -3.9885381178
C -0.7179347875 1.4630522936 -6.2314511395
N -2.1579201696 1.4595434665 -6.4844522140
O -0.3776541516 2.7865290308 -5.8213851414
C 0.1062012285 1.1619336618 -7.5541528091
C 1.4979311750 1.8119059781 -7.5891485946
C 0.1793892619 -0.3486089370 -7.8256595421
O -0.6905070233 1.7710387915 -8.5832670678
H -2.2965965333 2.0800383050 -7.2832858488
H -2.4527738578 0.5430735427 -6.8230886054
H -1.1573477871 3.0973491919 -5.3282830473
H 2.1935947730 1.4018275816 -6.8533902472
H 1.9494744448 1.6361848330 -8.5743103504
H 1.4161218793 2.8876003884 -7.4251839915
H -0.8205326526 -0.7949982325 -7.8426118826
H 0.6321898620 -0.5224883602 -8.8072510746
H 0.7831435322 -0.8805936525 -7.0818985513
H -0.1197654825 1.9473201240 -9.3470577229
C -4.2572474712 2.1835507005 -1.4631532621
N -4.3471996194 3.0773798521 -0.3003050579
O -3.1539187408 2.6030987777 -2.2392416720
C -5.5693853809 2.4437549709 -2.3105166302
C -5.6220843324 1.6759565884 -3.6365091031
C -6.8611996645 2.2183565401 -1.5153108288
O -5.4565513736 3.8237801522 -2.6921934735
H -3.4211958126 3.2969477174 0.0625228247
H -4.9229351808 2.7056544556 0.4519999702
H -3.5026950983 3.3806852748 -2.7265722114
H -5.8311549565 0.6111711033 -3.4832807259
H -6.4399272197 2.0813617912 -4.2385623327
H -4.7002420193 1.8014402559 -4.2146702712
H -6.9067976280 2.8511833138 -0.6230587553
H -7.7162703448 2.4803730427 -2.1447899060
H -6.9826070947 1.1730529678 -1.2087983723
H -5.4047152335 4.3151979802 -1.8485169335
