151
# extracted from Terachem optimization
Fe 0.1368853657 0.2163461816 0.1233176745
O 0.3502297586 2.3394897400 0.0306610463
C 1.5858798503 2.7356177718 0.7150464371
N 1.7047806157 4.1232932442 0.3522695683
C 1.0266516932 4.3246662775 -0.8347206805
C 0.2116159305 3.2642938425 -1.0562328267
H -0.4224902890 2.9552058697 -1.8679307825
H 2.5874464851 4.6359742452 0.4299542719
H 1.4250008164 2.5778661959 1.7851835995
O 2.2430891321 0.4806955839 0.1566826809
C 2.7358285471 1.8646476964 0.1806079980
S 4.1920760939 2.0497362445 1.2323428983
C 5.2936395576 0.9672431666 0.1948118860
C 4.5390121455 -0.3018878457 -0.0895531400
C 3.2210896987 -0.5033599253 -0.0765648601
H 6.1108899021 0.7037509802 0.8732686782
H 2.7527745727 -1.4685454394 -0.2247148930
H 5.1373424213 -1.1881835293 -0.2757088439
H 3.0106056869 2.1120915881 -0.8506773520
C 5.9362966241 1.6904143943 -1.0452192776
N 4.8987987099 1.9308506297 -2.0622424053
C 6.5358068167 3.0395623741 -0.6129710716
C 7.0917930557 0.8015189563 -1.6582265159
N 7.9822110869 0.3182828587 -0.6047814375
N 6.5572604775 -0.3222002067 -2.4313953630
H 5.1906502047 2.7050188861 -2.6588935845
H 4.8831708508 1.0989191854 -2.6599454227
H 7.1529739875 2.9519176478 0.2874138496
H 7.1662642576 3.4449931354 -1.4122506170
H 5.7483246613 3.7666773286 -0.3999683942
H 7.5828852468 1.4648284551 -2.3895204388
H 8.7527126625 -0.2083926024 -1.0150248952
H 8.4124579681 1.0915466464 -0.0985384070
H 7.1194094368 -0.4796554309 -3.2645867770
H 6.6177333235 -1.1737384531 -1.8750047294
C 1.3049312786 5.5989356436 -1.6236014600
N 2.5106684247 6.1973452117 -1.0358025427
C 1.5498479198 5.2446000031 -3.0982655565
C 0.0798647245 6.6108387307 -1.4867901948
N -1.2010560565 6.1655369766 -2.0022775255
N 0.0280143939 7.0542445486 -0.1011550515
H 3.0870013906 6.6428452413 -1.7454904340
H 2.2143933333 6.9088774159 -0.3633140315
H 0.6960661139 4.7221935898 -3.5392819413
H 1.7198620075 6.1596353767 -3.6766022140
H 2.4321103079 4.6041283869 -3.1979890622
H 0.3777461002 7.4757646691 -2.0897315337
H -1.4835353241 5.2608682375 -1.6321066719
H -1.2439285145 6.1452799484 -3.0173903859
H -0.5184134310 7.9114858555 -0.0390479568
H -0.4547166922 6.3693558169 0.4801033754
O 0.2246510405 -1.8643154979 0.3498237742
C 0.5038694628 -2.2557083316 1.7363846196
N 0.0903348212 -3.6349875635 1.7726468055
C 0.0619391814 -4.1239283304 0.4622288574
C 0.1161913231 -3.0974288920 -0.4010334159
H 0.0016248335 -2.9715044990 -1.4628519098
H 0.5140164524 -4.2968952986 2.4263166285
H 1.5821020087 -2.1036554872 1.9139101635
O -0.2399035109 0.0091930971 2.1696773731
C -0.3235571682 -1.3715113349 2.6697829392
S 0.2938923850 -1.5028955582 4.3606608123
C -0.9932420420 -0.4119894891 5.1311937259
C -1.1080559061 0.8343864822 4.2985243251
C -0.7614721252 1.0008015299 3.0236995483
H -0.5351893216 -0.1474656532 6.0929663413
H -0.8356235563 1.9432901077 2.4950677318
H -1.5259660669 1.7121037896 4.7813458204
H -1.3754596115 -1.6594849777 2.6287695532
C -2.3725640741 -1.0851068851 5.4903491431
N -3.3205254868 -0.9269318951 4.3583433182
C -2.2193107675 -2.5806283452 5.7988568726
C -2.9727577132 -0.3648786146 6.7632162238
N -2.0218289898 -0.4025033432 7.8694437137
N -3.3422501840 1.0183489870 6.4544591460
H -4.1017121452 -1.5621855364 4.5353750805
H -3.7127851870 0.0146568075 4.4747186866
H -1.4019060273 -2.7771055438 6.4986053810
H -3.1445262594 -2.9689682281 6.2416772870
H -2.0111983447 -3.1532015378 4.8912895076
H -3.9166693297 -0.9004534186 6.9647769688
H -2.4059513493 0.0845831252 8.6779016692
H -1.8316266278 -1.3554246642 8.1757104312
H -4.1901638109 1.2863361256 6.9489300694
H -2.6058005927 1.6428820470 6.7837561933
C -0.0582528425 -5.6446957020 0.3069115991
N 0.5127138624 -6.2205975754 1.5376810707
C -1.5518725462 -6.0064318664 0.2195448005
C 0.7307689001 -6.2025168657 -0.9389071601
N 0.2805125081 -5.8376821441 -2.2769603369
N 2.1472650530 -5.9382050129 -0.7340258846
H 0.0192744827 -7.0661368513 1.8141751841
H 1.4878331017 -6.4632874786 1.3527103138
H -2.0339363234 -5.5077906394 -0.6261033006
H -1.6715479936 -7.0895017931 0.0974876394
H -2.0702208072 -5.7059000472 1.1355092137
H 0.5974513325 -7.2884909240 -0.8609134089
H 0.4192800183 -4.8607392650 -2.5218624577
H -0.6864247744 -6.0954620304 -2.4583203533
H 2.6974964577 -6.5017134269 -1.3792124474
H 2.3599324549 -4.9617208023 -0.9357131357
O -2.1683963952 0.2522676639 -0.0755536826
C -2.5805734000 0.6340171557 -1.4260422845
N -3.9696663003 0.2727361050 -1.4331047506
C -4.3681461123 -0.2508351131 -0.2590286404
C -3.2708343899 -0.2675592629 0.5857289848
H -3.1249028727 -0.5816309686 1.6112256474
H -4.6490227641 0.3021674719 -2.2023446265
H -2.4272727215 1.7199385115 -1.5092333062
O -0.3467848044 0.1158037225 -2.0659515830
C -1.7253094197 -0.1306532943 -2.4362600582
S -2.0958147671 0.4169225704 -4.1278696050
C -0.9708620202 -0.8316602673 -4.9353242547
C 0.3442559098 -0.8152241342 -4.2072820694
C 0.6038467420 -0.3691091075 -2.9785380812
H -0.7765969520 -0.3934604949 -5.9185902297
H 1.5986258135 -0.2919910205 -2.5574931738
H 1.2029590748 -1.1281302184 -4.7942043751
H -1.9192789887 -1.2102969261 -2.3988563105
C -1.6564526768 -2.2314439820 -5.1696257142
N -2.1226747949 -2.7827700037 -3.8854756978
C -2.8596967352 -2.0409912274 -6.1081137702
C -0.6407324930 -3.2463024345 -5.8310092376
N 0.1274467154 -2.5932309255 -6.8893520200
N 0.2650452697 -3.8307068371 -4.8324803387
H -2.9855570251 -3.3056451950 -4.0265013735
H -1.4108678699 -3.4497373915 -3.5789268997
H -2.5831745056 -1.5422988879 -7.0429751673
H -3.2973125249 -3.0114628772 -6.3668126053
H -3.6372021789 -1.4369074497 -5.6318789534
H -1.2732029970 -4.0765198239 -6.1855504994
H 0.7307960465 -3.2759557702 -7.3473801515
H -0.4866296132 -2.2356328016 -7.6206153829
H 0.4340283759 -4.8163177270 -5.0232884643
H 1.1685789625 -3.3630526390 -4.8754725579
C -5.8155870942 -0.7096374980 -0.1247948892
N -6.4696410587 -0.3110671124 -1.3766008993
C -5.8428508683 -2.2411644187 0.0282978282
C -6.5280230376 -0.0035677248 1.1126965228
N -6.0870519332 -0.3729545057 2.4408753285
N -6.5139061056 1.4314499893 0.8621640086
H -7.1758801068 -0.9853512004 -1.6610313758
H -6.9183561800 0.5965467035 -1.2352460801
H -5.2578876869 -2.5715862625 0.8905278291
H -6.8769280225 -2.5766493141 0.1671187058
H -5.4422967337 -2.7269292125 -0.8670252458
H -7.5677138786 -0.3375834477 1.0257025994
H -5.0982381844 -0.2215918752 2.6201034930
H -6.3377514776 -1.3228485273 2.6997580374
H -7.2689886860 1.8765598442 1.3814232746
H -5.6536587835 1.8475341154 1.2188049089
