145
# extracted from Terachem optimization
Fe -0.1990031266 -0.0038431481 0.0648473789
O -0.2093910824 2.0503915794 0.3467265267
C -1.4206675063 2.8837502184 0.4178081193
C -0.9257043886 4.2638682636 0.1268235816
C 0.4082771699 4.3058890810 0.0732672732
C 0.9721108836 2.9310706733 0.3211309751
H 1.6458766059 2.5730229044 -0.4587600765
H 1.4926810904 2.8447086466 1.2799693148
H -1.5849561687 5.1103847305 -0.0249213901
H -1.8575342819 2.7771295962 1.4193195172
H -2.1365066175 2.4917677005 -0.3085549955
C 1.3768516654 5.4337428154 -0.2194729119
N 2.6627745445 5.1016922070 0.4134851843
C 0.8778733427 6.8707877825 0.1524824237
N -0.3451846529 7.1631431672 -0.5675517981
N 0.7315227380 6.9584724279 1.5970719158
O 1.8734936466 7.8030423630 -0.2420604103
H 1.5478557187 5.4448972913 -1.3055509850
H 3.4101770620 5.6135250713 -0.0513087646
H 2.6283316672 5.4461906577 1.3761213411
H -0.6460205281 8.1077266339 -0.3225233408
H -0.1464174369 7.1937661636 -1.5691496095
H 0.6256190948 7.9371220027 1.8638379258
H -0.1087818502 6.4690164228 1.8986642699
H 2.5873283731 7.7864250451 0.4179468786
O 2.0271771712 0.0291011165 0.0775127249
C 2.8848713550 0.0210577302 -1.1077016329
C 4.2414544172 -0.3215748140 -0.5788679006
C 4.2522730312 -0.3454508393 0.7577227672
C 2.8712855166 -0.0246495799 1.2711562714
H 2.4616755985 -0.7797232501 1.9471968703
H 2.8279848548 0.9469307087 1.7783574408
H 5.0936299039 -0.5308765858 -1.2145285052
H 2.8475457943 1.0089063324 -1.5889878030
H 2.4828044981 -0.7124136312 -1.8140218519
C 5.3721454114 -0.6796028215 1.7226941750
N 5.1475623742 -0.0183433455 3.0304279774
C 6.8223362836 -0.3829963643 1.1994286337
N 7.0741283118 -1.1753428217 0.0129131246
N 6.9605306223 1.0470104523 0.9862768333
O 7.7305198054 -0.7612382985 2.2309723041
H 5.3368731354 -1.7609187357 1.9168496246
H 5.8847978788 -0.3818913654 3.6388819891
H 5.3951634398 0.9685709345 2.9043381912
H 8.0265975422 -0.9921599184 -0.3062580496
H 7.0564688905 -2.1673676538 0.2558900735
H 7.9251748033 1.2710350132 0.7395384376
H 6.3780741307 1.3457894414 0.2066937974
H 7.9940547426 0.0373218468 2.7186297790
O -0.1687534335 -2.0608279132 -0.1880737621
C 1.0323985137 -2.8814407147 -0.3956424232
C 0.5593623762 -4.2815455001 -0.1720796274
C -0.7636575116 -4.3314323960 0.0097017821
C -1.3444905241 -2.9435733746 -0.0600002902
H -1.9841510453 -2.7966810500 -0.9375322000
H -1.9060039717 -2.6452644332 0.8238779934
H 1.2157874113 -5.1425274064 -0.2223007455
H 1.8023617414 -2.5294453533 0.2965277743
H 1.3944323056 -2.7125501939 -1.4180161812
C -1.7197765251 -5.4998140534 0.1619632638
N -2.9090364571 -5.0279469355 0.8843276605
C -1.1084471914 -6.7979383075 0.7894552120
N -0.0021228834 -7.2594873427 -0.0224713108
N -0.7261895058 -6.5223989794 2.1690411982
O -2.1131021360 -7.7991222403 0.8062507992
H -2.0492293538 -5.7794864117 -0.8489180505
H -3.7033429225 -5.6260849964 0.6671529921
H -2.7272300294 -5.1266573411 1.8856712243
H 0.3500363244 -8.1312336744 0.3763598832
H -0.3440038016 -7.5058283950 -0.9529584562
H -0.5798188604 -7.4094019753 2.6512687669
H 0.1605622125 -6.0220445041 2.1873816374
H -2.7364812009 -7.6008853455 1.5255855710
O -2.3748650493 -0.0163219403 0.1615788376
C -3.1540405002 -0.0673326650 1.4020894633
C -4.5606575850 -0.2848466916 0.9464250792
C -4.6488082020 -0.2941377525 -0.3864986585
C -3.2847009270 -0.0704772154 -0.9868975818
H -2.9694139698 -0.8851102504 -1.6468014466
H -3.1963182794 0.8655088613 -1.5480878525
H -5.3863774253 -0.4443614769 1.6296335203
H -3.0078578647 0.8727076337 1.9499576811
H -2.7609459071 -0.8767796687 2.0263416587
C -5.8161565596 -0.5706251921 -1.3120481390
N -5.5286785198 0.0215477342 -2.6196544922
C -7.2331309275 -0.1476894366 -0.7628165031
N -7.5004320177 -0.8680443480 0.4616226700
N -7.2629454541 1.2939141225 -0.6059474160
O -8.2068274768 -0.5095862259 -1.7259567796
H -5.8685439807 -1.6587032408 -1.4571589603
H -6.0835125572 -0.4313712169 -3.3422640336
H -5.7940450956 1.0080848168 -2.6004341015
H -8.4003633505 -0.5690029746 0.8383549114
H -7.5879792679 -1.8660057688 0.2655420192
H -8.2230046976 1.6055420395 -0.4624866999
H -6.7154307119 1.5821158874 0.2021634651
H -8.1806195902 0.1430125466 -2.4467729619
O -0.1843596054 -0.3423575477 2.4530347782
C -0.0442522376 -1.6431544493 3.0959755917
C 0.9150590647 -1.3932474498 4.2203273175
C 1.0848638949 -0.0766292209 4.4015070351
C 0.2315954593 0.6695268658 3.4067103378
H -0.6458827311 1.1112048086 3.8992818889
H 0.7681314421 1.4554173685 2.8691365333
H 1.3746726134 -2.1937559846 4.7883236221
H 0.3231980294 -2.3586501232 2.3556242734
H -1.0302884213 -1.9874100876 3.4434658629
C 2.0003224046 0.6324924418 5.3816366239
N 3.2685843283 -0.0489302280 5.4614202037
C 1.4015576331 0.7579187758 6.8268801657
N 0.1126141729 1.4059231327 6.7245726978
N 1.3283843919 -0.5808509899 7.3931883101
O 2.2628329912 1.5496801068 7.6113407387
H 2.1833818008 1.6513447225 5.0161921145
H 3.2651603418 -0.8516197061 6.0928219203
H 3.8527937309 -0.1028692797 4.6110638576
H -0.3699807084 1.3266285800 7.6198488370
H 0.2583825920 2.4062233236 6.5786679722
H 1.3797546706 -0.5191691517 8.4087808188
H 0.4564848268 -1.0430286902 7.1438440567
H 3.1618483584 1.1742400318 7.5917777017
O -0.2142027116 0.2974552997 -2.2446762851
C -0.2283193169 1.6060357758 -2.8865517778
C -0.3652682865 1.3049570649 -4.3459036520
C -0.4100208911 -0.0108621153 -4.5710600822
C -0.2952516372 -0.7426748424 -3.2529287836
H -1.1671490700 -1.3769381962 -3.0429467218
H 0.6027046083 -1.3702012046 -3.1883013780
H -0.4369715019 2.0785305470 -5.1013013937
H 0.7012956752 2.1370940680 -2.6409663074
H -1.0659164436 2.1924268529 -2.4895880331
C -0.6398474631 -0.7784927754 -5.8651486587
N -0.2047072448 -2.1619839655 -5.8553071531
C 0.0485382263 -0.1225953572 -7.1496761408
N -0.5410391970 1.1628459657 -7.4124829488
N 1.4719521890 -0.0430256502 -6.9013345329
O -0.1826656890 -0.9805885535 -8.2270535394
H -1.7175759985 -0.7882209736 -6.0734650101
H 0.7641848135 -2.2943543427 -5.5845237924
H -0.8341157958 -2.8330328227 -5.4320818897
H -0.0460304997 1.6557941008 -8.1536866300
H -1.5244666493 1.0842458701 -7.6690124555
H 1.9917527515 -0.0691582679 -7.7752412819
H 1.7331860121 0.7680851482 -6.3474139563
H -0.1620433279 -1.8895105117 -7.8499521339
