139
# extracted from Terachem optimization
Fe 0.2351129809 -0.1826354009 -0.1441872103
O 0.4700782323 1.8163171191 -0.5819717365
C 1.8593578530 2.2750915753 -0.5985506754
O 2.0189077443 2.9922737438 0.6024250889
C 0.7572481432 3.5450443326 0.8368284701
C -0.1566074906 2.8656371930 0.1466618206
H -1.2191918504 2.9391710251 0.0430923974
H 1.9390397211 2.9717776342 -1.4469641016
O 2.2654561004 -0.0795320023 -0.1057511837
C 2.8105797742 1.1020540523 -0.7639686830
C 4.2089644922 1.3192224663 -0.1787093909
C 4.5629638465 -0.0625919691 0.4078710108
C 3.2086503395 -0.5654558600 0.9129494981
H 2.9144360092 -0.1411166886 1.8748368658
H 3.1110887999 -1.6464994996 0.9273376305
H 4.8577599963 -0.7192548117 -0.4174687301
H 4.9274277416 1.6368326827 -0.9343749535
H 4.1804231592 2.0835745623 0.5987491555
H 2.8503767402 0.8604017803 -1.8279554968
C 5.7718410067 -0.0192579369 1.4050924951
N 6.8624010691 0.6219621314 0.6745783341
C 5.4736178494 0.8077663399 2.6629759839
C 6.1175718525 -1.5007789678 1.7939365225
O 5.1128329321 -2.1449664581 2.5315625440
O 6.3398927966 -2.2061937691 0.6457031470
Cl 7.6676855099 -1.5299029601 2.8586845203
H 7.6383703165 0.8250549295 1.3022406195
H 7.2255859064 -0.0064594284 -0.0411895838
H 4.6214926385 0.4155759165 3.2262374914
H 6.3411313406 0.8138208599 3.3280562646
H 5.2616145895 1.8441934368 2.3926767238
H 5.2688158824 -2.0083579925 3.4806390146
H 6.4426969030 -3.1477399389 0.8725461764
C 0.6990411920 4.7644168295 1.7421959573
N 1.4298018839 4.4507788089 2.9577930359
C 1.4160579001 5.9261292391 1.0245255227
C -0.8225360744 5.1035111446 1.9799928102
O -1.5176291084 5.4640894743 0.8284511946
O -1.4487967253 4.0068615009 2.5162021363
Cl -0.9325434958 6.5372025381 3.1839370038
H 1.6294817413 5.3061657186 3.4709091432
H 0.9104229744 3.8320684527 3.5777595676
H 0.9491853243 6.1571557251 0.0628663352
H 1.4077755354 6.8241481911 1.6488334222
H 2.4547634335 5.6404807492 0.8455997489
H -1.3312876469 6.3926224870 0.6092360456
H -2.4079216027 4.1031942312 2.3549883582
O -0.0335032660 -2.1875599153 0.0726732102
C -0.3319577612 -2.6095594052 1.4423331067
O 0.8413247341 -3.2215649913 1.9066766762
C 1.4516179400 -3.7388635160 0.7644059736
C 0.9623360372 -3.1326094236 -0.3192691309
H 1.1762658675 -3.2024245487 -1.3701447232
H -1.1344153217 -3.3592446870 1.3718725070
O 0.0504617341 -0.2696709554 1.8832778015
C -0.7764814043 -1.4123053101 2.2559257437
C -0.6470353972 -1.5004244420 3.7665733398
C -0.6564009185 -0.0057589263 4.1410480685
C 0.2281317334 0.6204518950 3.0496622306
H 1.2912029946 0.6256015342 3.2961868573
H -0.0830808082 1.6181075669 2.7444524623
H -1.6748771982 0.3671866643 3.9789129298
H -1.4679431779 -2.0420068288 4.2383629240
H 0.2954350120 -1.9870493555 4.0314618091
H -1.8118156014 -1.1975883711 1.9695248400
C -0.3357809424 0.2840759419 5.6440947305
N -1.4083465234 -0.3618160747 6.3961477011
C 1.0057232990 -0.3158141424 6.0903667748
C -0.3253069103 1.8420907898 5.8326402097
O 0.7596157612 2.4760795566 5.2118023937
O -1.4805656699 2.3517484699 5.3099634092
Cl -0.2212025937 2.2558450418 7.6603906102
H -1.1858879740 -0.3763558005 7.3896712593
H -2.2751186997 0.1664801992 6.3016440815
H 1.8333896960 -0.0143078007 5.4413562722
H 1.2444236016 -0.0060548485 7.1118837686
H 0.9417219801 -1.4062305918 6.0870325422
H 1.5276115549 2.4646176295 5.8073045324
H -1.4307644244 3.3246112281 5.3345633242
C 2.4339338607 -4.8802858008 0.9953402391
N 3.1918404600 -4.5866547813 2.1974988426
C 1.6057623301 -6.1596911251 1.2395714669
C 3.3237549094 -5.0150703801 -0.2944232382
O 2.6177879713 -5.2769276358 -1.4632241231
O 4.0093385801 -3.8389145219 -0.4658455956
Cl 4.5502274553 -6.4101390130 -0.0347288323
H 3.6870773805 -5.4191762406 2.5070992778
H 3.8759175002 -3.8462974732 2.0533604074
H 0.9837995507 -6.4106075619 0.3756616401
H 2.2646533943 -7.0040519722 1.4596642391
H 0.9549577121 -5.9990516744 2.1022142945
H 2.3783096288 -6.2185056208 -1.4963318535
H 4.5114024877 -3.9030661404 -1.2983590404
O -1.8293678823 -0.1798612763 -0.2921379104
C -2.3363971757 -0.3766966381 -1.6440989218
O -2.8019920481 0.8969022120 -2.0317112683
C -3.2503905272 1.4791191241 -0.8444919037
C -2.6802132585 0.8566123439 0.1883288568
H -2.7138640619 1.0064014703 1.2511194801
H -3.1981974968 -1.0564425564 -1.5599572339
O 0.0599251534 -0.5202221830 -2.1329588361
C -1.2649930306 -0.9871299949 -2.5332676431
C -1.3893138546 -0.6649486660 -4.0219982517
C 0.0775560402 -0.6797648980 -4.4936157768
C 0.8020584554 -0.0427118921 -3.3066472599
H 0.7656479467 1.0492359707 -3.3217034810
H 1.8272537013 -0.3863630865 -3.1899202425
H 0.4037170763 -1.7240704441 -4.5572362965
H -1.9996183117 -1.3917041914 -4.5582739813
H -1.8365059259 0.3218177532 -4.1563085156
H -1.2809852777 -2.0672971027 -2.3532784050
C 0.2926829638 -0.0498071756 -5.9116589093
N -0.5920491235 -0.7967056187 -6.8006533324
C -0.0867379817 1.4365171772 -5.9753275584
C 1.8018897746 -0.2431953166 -6.2954025798
O 2.5935436704 0.5409724228 -5.4684739191
O 2.1019392487 -1.5982760057 -6.2149864756
Cl 2.1049888065 0.2875939048 -8.0554292515
H -0.6293065852 -0.3540483735 -7.7168245115
H -0.2287458930 -1.7381856773 -6.9455295227
H 0.5084150190 2.0496181806 -5.2956571656
H 0.0767821383 1.8216284483 -6.9855405492
H -1.1467003486 1.5680954513 -5.7457911826
H 3.5165434664 0.4987683408 -5.7741202859
H 2.8320484279 -1.8174198946 -6.8184474042
C -4.1656979226 2.6924908469 -0.9900373525
N -3.3017468831 3.8303606416 -1.2907500286
C -5.1174287045 2.4522170365 -2.1772562413
C -4.9995821223 2.8555482035 0.3351286060
O -5.8421187845 1.7944425598 0.6053841840
O -4.1376722857 2.9723623200 1.4179272848
Cl -6.0114019445 4.4183033521 0.2147983303
H -3.8108771758 4.5326606502 -1.8228844229
H -2.9555563641 4.2834600373 -0.4467764679
H -5.6734735236 1.5176959604 -2.0635796266
H -5.8251384325 3.2801598979 -2.2643829448
H -4.5372247719 2.3910576429 -3.0995560129
H -6.6643918537 1.8852777734 0.0952613191
H -4.6985451468 2.8913762110 2.2129656877
