172
# extracted from Terachem optimization
Fe 0.0533034825 -0.1922277945 -0.2457282721
O -0.0099463850 1.9784791907 -0.2572869470
C 1.0857941060 2.6368172183 -0.9492911688
S 1.0017301099 4.3975302930 -0.5251311322
C -0.8413563481 4.2429139957 -0.7088714143
C -1.1405190843 2.8862408081 -0.0460848618
H -1.2660005366 2.9903320311 1.0337048662
H -2.0176947778 2.4181070178 -0.4985140607
H -1.0629021164 4.1797610422 -1.7785846675
H 0.9185447543 2.4934143908 -2.0231535164
O 2.1005470888 0.5132880872 -0.6671656224
C 2.3819466207 1.9427174965 -0.5638925036
O 2.7846610242 2.2697715241 0.7143709948
C 4.0913950861 1.6902145653 1.0610071192
C 3.9671646867 0.1672506571 0.9067518287
C 3.3362156585 -0.2365367330 -0.4243976728
H 4.1804756801 1.9305431802 2.1241788321
H 3.1618599205 2.1699029482 -1.3035758745
H 3.0456234277 -1.2859829973 -0.4173177837
H 3.9959217942 -0.0491751592 -1.2783523304
H 4.9412773461 -0.3207845962 1.0081092481
H 3.3401490318 -0.2111076232 1.7188812765
C 5.2126957333 2.4005380405 0.3158980030
C 5.2517898203 3.8092346082 0.3652630098
C 6.2804520565 4.5204266375 -0.2427536678
C 7.3055881634 3.8479244705 -0.9225896583
C 8.4606709068 4.6337105955 -1.5380282622
O 8.2526330753 5.9970482829 -1.5557796268
C 9.7980200524 4.3771615873 -0.8599864269
Cl 8.5661755568 4.0161661827 -3.3240125119
C 7.2752544719 2.4403283526 -0.9649823481
C 6.2448052072 1.7302653853 -0.3541235680
H 4.4765108931 4.3475704077 0.9033987732
H 6.3129082321 5.6014744960 -0.1645640980
H 7.5145455836 6.2139640654 -2.1511514446
H 10.0423317470 3.3134012156 -0.8434703234
H 10.5816790873 4.9221577842 -1.3909740543
H 9.7439187730 4.7495427927 0.1686229236
H 8.0579643605 1.9022035498 -1.4889530279
H 6.2717315413 0.6461457410 -0.3982254945
C -1.5969472441 5.4077774769 -0.1136583988
C -2.4684713793 6.1525745664 -0.9265631507
C -3.1709947727 7.2380499202 -0.4110399136
C -3.0143429027 7.6149559757 0.9302294448
C -3.8219630156 8.7858857150 1.4887496805
O -4.4533856980 9.5281346883 0.5126579638
C -4.8740171914 8.3613914146 2.5030663849
Cl -2.5582133683 9.8766907954 2.3642632344
C -2.1441153929 6.8623431072 1.7493677315
C -1.4488523991 5.7768956107 1.2353791092
H -2.5976347281 5.8831786400 -1.9716764963
H -3.8559410461 7.7913352910 -1.0435884225
H -3.7937913807 9.9758278448 -0.0456103847
H -4.4277174003 7.7948977818 3.3229477274
H -5.3669979958 9.2499718066 2.9041771065
H -5.6223252116 7.7406172394 1.9982400523
H -1.9973928952 7.1530324817 2.7841360557
H -0.7606612117 5.2341586516 1.8781272748
O 0.2024729922 -2.4602583774 -0.1176150104
C 0.0635034854 -3.0137078022 1.2194441062
S 1.5559087149 -4.0163119652 1.5332904799
C 1.3424409947 -4.6319731902 -0.2005910926
C 0.9929709145 -3.3501743777 -0.9761180674
H 1.8972269435 -2.8128595649 -1.2679589524
H 0.3968483788 -3.5757070336 -1.8646257845
H 0.4754367993 -5.3003415428 -0.2082568900
H -0.8173362846 -3.6648501653 1.2236545099
O 0.4836999775 -0.6743891408 1.7310891649
C -0.1484125987 -1.8923708316 2.2518397060
O 0.4217735775 -2.3023324440 3.4287218624
C 0.3454833458 -1.3332068500 4.5323638675
C 1.0777461955 -0.0800686975 4.0433973347
C 0.5052332362 0.4152340755 2.7215436161
H 0.9394193195 -1.8227306114 5.3079088215
H -1.2133647454 -1.6560932355 2.3773809390
H 1.1186779589 1.1914370565 2.2622763804
H -0.5224965884 0.7739578744 2.8355851707
H 1.0294586367 0.7262642820 4.7819773657
H 2.1345155055 -0.3348561161 3.9136932112
C -1.0893623183 -1.1713279820 5.0123677788
C -1.8408870697 -2.3243207588 5.2841361506
C -3.1610307289 -2.2330641996 5.7244782613
C -3.7737188834 -0.9853510625 5.8901277360
C -5.2250067278 -0.8872650174 6.3475120611
O -5.8657483120 -2.0978161128 6.4554405448
C -5.4234833820 -0.1415801441 7.6565324524
Cl -6.0985964762 0.1234235154 4.9603759025
C -3.0112315200 0.1681375738 5.6617968555
C -1.6897588305 0.0772491078 5.2350136809
H -1.3880816970 -3.3044972844 5.1618971863
H -3.7062905409 -3.1396415845 5.9653504571
H -5.8524755743 -2.5597497483 5.6002911812
H -4.9893164864 0.8589761250 7.6218042942
H -6.4906661288 -0.0679057473 7.8749799304
H -4.9382121022 -0.7128052018 8.4552887890
H -3.4593075655 1.1462556121 5.8020224309
H -1.1302834425 0.9974500656 5.0962948390
C 2.5400103704 -5.3854534473 -0.7311997451
C 2.3564018743 -6.6642122725 -1.2904066731
C 3.4386654765 -7.3955796863 -1.7692645897
C 4.7374990858 -6.8732981121 -1.6968852284
C 5.9105108743 -7.6748101107 -2.2565919569
O 5.5932907077 -8.9829355901 -2.5490404852
C 6.5235665626 -7.0570617381 -3.5048209460
Cl 7.2061118163 -7.6527664583 -0.8814438138
C 4.9219511195 -5.5832025212 -1.1473753111
C 3.8405150499 -4.8545659248 -0.6744447674
H 1.3583883742 -7.0879349887 -1.3566766226
H 3.2787457569 -8.3694183605 -2.2177416622
H 5.3659317110 -9.4645127060 -1.7342522885
H 6.8288862196 -6.0232774256 -3.3311103691
H 7.3924239001 -7.6456023546 -3.8085973577
H 5.7801459605 -7.0855999787 -4.3086632691
H 5.9236961212 -5.1748188619 -1.0698562218
H 4.0116463317 -3.8818605591 -0.2208312289
O -2.1220880604 -0.6925234007 -0.2500469674
C -2.7597434537 -0.9619130855 -1.5202175700
S -3.9548878228 0.3939374580 -1.7687641209
C -4.4669738668 0.0178220266 -0.0166755272
C -3.1208234306 -0.1983390597 0.7090860098
H -2.7342933999 0.7327075470 1.1254234153
H -3.2229456934 -0.9405601868 1.5050923311
H -4.9964471753 -0.9390648715 -0.0607430937
H -3.3159916067 -1.9018855687 -1.4295362572
O -0.5316804678 -0.3332068797 -2.3193475808
C -1.7110875044 -1.1478115287 -2.6160692458
O -2.2930550900 -0.7819500442 -3.8024677023
C -1.4521518479 -1.0277151397 -4.9800675963
C -0.1925196281 -0.1796290810 -4.7660853197
C 0.4488710552 -0.4629765909 -3.4091001635
H -2.0467095166 -0.5986866777 -5.7903599078
H -1.3594405833 -2.1883415655 -2.6349427713
H 1.2381103682 0.2507641615 -3.1758561659
H 0.8604979733 -1.4768462483 -3.3649507365
H 0.5498068944 -0.3450998544 -5.5535652496
H -0.4846613996 0.8740210239 -4.8161056381
C -1.2797074233 -2.5222137258 -5.2074888671
C -2.4214101744 -3.3364201406 -5.1778811331
C -2.3238208747 -4.7150426360 -5.3619677314
C -1.0778565773 -5.3204120271 -5.5655033908
C -0.9708439925 -6.8308012949 -5.7420500016
O -2.1442192033 -7.5105665076 -5.5290296588
C -0.4172683401 -7.2717994935 -7.0864025572
Cl 0.2868378806 -7.3881802205 -4.3866499499
C 0.0586027346 -4.5033256584 -5.6413974943
C -0.0404185869 -3.1253831591 -5.4680278305
H -3.3973533158 -2.8869718600 -5.0166823979
H -3.2261258102 -5.3173925149 -5.3697865608
H -2.4789109678 -7.3293932052 -4.6345013449
H 0.5583870375 -6.8268465707 -7.2888670097
H -0.3308273481 -8.3600477016 -7.1049563362
H -1.1196955359 -6.9596261358 -7.8668846724
H 1.0317225340 -4.9497994850 -5.8169661326
H 0.8630608686 -2.5290943049 -5.5535251158
C -5.3850413312 1.0349363008 0.6154500327
C -6.6938061576 0.6561603629 0.9544472906
C -7.5685858487 1.5610014990 1.5504339462
C -7.1597714575 2.8743044214 1.8202060534
C -8.1148661693 3.8150950304 2.5533914822
O -9.4298848509 3.4071735024 2.4942632744
C -7.7522750198 3.9922211075 4.0218853090
Cl -7.9695034172 5.5020472936 1.7070189361
C -5.8485709333 3.2570964210 1.4778500104
C -4.9798929409 2.3532511654 0.8835294134
H -7.0327908997 -0.3570988166 0.7561454736
H -8.5690282386 1.2484449877 1.8275076272
H -9.7374104634 3.4057836613 1.5707199577
H -6.7351745477 4.3738269029 4.1323228088
H -8.4563329041 4.6865210616 4.4862262124
H -7.8265984788 3.0200754007 4.5205775550
H -5.5246251722 4.2747807532 1.6632898572
H -3.9838683619 2.6861315880 0.6082624171
