151
# extracted from Terachem optimization
Fe 0.0940537944 0.1640528255 -0.0191919561
O 0.3059794851 2.1728007285 0.4064300176
C 1.6032012736 2.3973483732 1.0611267631
N 1.8136322461 3.8238071784 0.9200534610
C 1.0652056740 4.2249031235 -0.2061832236
C 0.1717630557 3.2785656612 -0.5107618057
H -0.6232899343 3.2069780809 -1.2292965593
H 2.7882144687 4.1220405271 0.8471287180
H 1.4907948777 2.0816176993 2.1009236646
O 2.1046851982 0.2208707669 0.1823914333
C 2.6654322162 1.5627110604 0.3411009574
S 4.2024033042 1.5318856589 1.2983673284
C 5.1701769822 0.5493550387 0.0559717282
C 4.3284507940 -0.6353053060 -0.3357942877
C 3.0032000547 -0.7581334753 -0.2686330041
H 6.0266701780 0.1841146362 0.6334831315
H 2.4596193914 -1.6510670365 -0.5441457178
H 4.8442510397 -1.5106082549 -0.7159150172
H 2.8790804401 1.9360606745 -0.6646261575
C 5.7583401852 1.3749682988 -1.1532093608
N 4.7069819188 1.5509396092 -2.1712254150
C 6.2290067474 2.7678531632 -0.6989931335
C 6.9887982546 0.6099458212 -1.7749583729
N 7.9820399261 0.3043300639 -0.7462014000
N 6.5703755934 -0.6137286369 -2.4611169125
H 4.9628055244 2.3264550875 -2.7826514316
H 4.7173817213 0.7102945712 -2.7545691610
H 6.8056634768 2.7325200223 0.2307280701
H 6.8601593544 3.2213864539 -1.4729074894
H 5.3763579756 3.4307883692 -0.5306761442
H 7.3605093492 1.2864061757 -2.5641030673
H 8.7899542933 -0.1515964709 -1.1681670510
H 8.3327994426 1.1514852391 -0.3015550010
H 7.1649020143 -0.7884658931 -3.2683633039
H 6.7020300587 -1.4047653304 -1.8310267459
C 1.3649141718 5.5813702439 -0.8301287582
N 2.8167455161 5.8059036689 -0.6710952414
C 0.9891647429 5.5607862031 -2.3173034886
C 0.5565031568 6.7171084770 -0.0803945475
N -0.8937173176 6.5717045247 -0.0617285764
N 1.1352843614 6.8874899196 1.2468374913
H 3.2174153907 6.1966850094 -1.5200324925
H 2.9451604707 6.4802849541 0.0859458544
H -0.0687871289 5.3250319207 -2.4675365586
H 1.1762545314 6.5436956534 -2.7641993215
H 1.5830346550 4.8154442492 -2.8557227801
H 0.7696743870 7.6374559412 -0.6377337837
H -1.1718863875 5.6275823403 0.2032705591
H -1.3131213883 6.7843141562 -0.9639885376
H 0.7164237296 7.7060533375 1.6844822180
H 0.9077258773 6.0898932612 1.8405217140
O 0.1143595930 -1.8714058554 0.0805452228
C 0.5124076683 -2.2990298614 1.4310990975
N 0.1905706292 -3.7095972938 1.4411902965
C -0.7868361711 -3.9168397992 0.4445455106
C -0.8363019257 -2.8548662860 -0.3673753545
H -1.3290303358 -2.6323340731 -1.2979016010
H -0.0902102989 -4.1011824999 2.3415752811
H 1.5823059238 -2.0998114899 1.5251469680
O -0.1561953932 -0.0770472882 2.0159825863
C -0.2902093508 -1.4681321995 2.4275707548
S 0.2906368465 -1.7066259153 4.1247738552
C -1.0774225791 -0.7138608578 4.8966580492
C -1.2312050178 0.5593347927 4.1052617592
C -0.8225916762 0.8248516239 2.8634890440
H -0.6789695405 -0.4609315392 5.8859694511
H -0.9513965400 1.7810432870 2.3755784531
H -1.7480241858 1.3786802907 4.5937697953
H -1.3531294400 -1.7184539565 2.3844586088
C -2.4282435350 -1.4921514704 5.1403503836
N -3.2482944411 -1.4239373401 3.9173820226
C -2.1812144648 -2.9735347205 5.4733631848
C -3.2086326119 -0.8377780402 6.3445487944
N -2.3709046386 -0.8043773399 7.5425130644
N -3.6813541624 0.5094806990 6.0180658254
H -3.9912578828 -2.1229773392 3.9584180200
H -3.7362467189 -0.5245176977 3.9411380411
H -1.3752563244 -3.1098272786 6.2010364819
H -3.0932899271 -3.4208528862 5.8868437052
H -1.9095879440 -3.5364420133 4.5762876955
H -4.1125821222 -1.4619060240 6.4500388593
H -2.8972167258 -0.4172521564 8.3245342090
H -2.0852705586 -1.7404384529 7.8257142802
H -4.5812521894 0.6873083775 6.4583027220
H -3.0314163536 1.1917376402 6.4086478726
C -1.5277076147 -5.2466630112 0.4372547539
N -1.6834322494 -5.6576752515 1.8478692131
C -2.9043455784 -5.0728040668 -0.2156850231
C -0.6869348818 -6.3302361649 -0.3532612320
N -0.3760858712 -6.0182209619 -1.7442754971
N 0.4901245770 -6.6594015830 0.4382993397
H -2.6123546235 -6.0355623905 2.0152839724
H -1.0008405688 -6.3937253847 2.0390945901
H -2.8266939968 -4.6849122105 -1.2360937086
H -3.4218777294 -6.0375586410 -0.2628030188
H -3.5172713344 -4.3776232737 0.3672451299
H -1.3182115553 -7.2273409063 -0.3705854941
H 0.0063447749 -5.0777003615 -1.8386938606
H -1.1968096248 -6.0878704714 -2.3419269275
H 0.9767391155 -7.4386274363 -0.0004282496
H 1.1406661331 -5.8745408419 0.4607626075
O -1.8961192325 0.4164778168 -0.2285701697
C -2.3065836444 0.7857577894 -1.5897197894
N -3.6083324927 0.1833292463 -1.7542618373
C -4.0335177318 -0.2940145769 -0.4940213002
C -3.0322311621 -0.2132586901 0.3865713806
H -2.9105493025 -0.4577453850 1.4291520199
H -4.3366757168 0.7582367445 -2.1791418768
H -2.3264449237 1.8846319838 -1.6455537624
O 0.0426679682 0.5231416307 -2.0100601447
C -1.2824253409 0.2182146653 -2.5666661268
S -1.5232559988 0.9511180635 -4.2042682970
C -0.1747653200 -0.0084641315 -5.0422613678
C 1.0529644743 0.0809290974 -4.1838631285
C 1.1288219452 0.3444503395 -2.8800269498
H 0.0348731798 0.5823538013 -5.9383956029
H 2.0589036367 0.5115534595 -2.3566639125
H 2.0023415945 0.0197164008 -4.7088669007
H -1.3628717105 -0.8658149912 -2.6785732575
C -0.6087902215 -1.4395714917 -5.5280204375
N -0.9911547897 -2.2760892986 -4.3758051103
C -1.8157163006 -1.3033247687 -6.4722934263
C 0.5701827435 -2.1427476056 -6.3137224139
N 1.2353104960 -1.1957872543 -7.2139071318
N 1.5315274155 -2.7606930339 -5.4019959977
H -1.7038211084 -2.9429080686 -4.6683483795
H -0.1582707999 -2.8197779569 -4.1301834883
H -1.6210402608 -0.6071118328 -7.2955419548
H -2.0646154226 -2.2762173345 -6.9112924465
H -2.6933330440 -0.9375927608 -5.9329813212
H 0.0881674259 -2.9839043998 -6.8385404130
H 1.9567710846 -1.6831935512 -7.7443342751
H 0.5814717341 -0.8317396162 -7.9069767851
H 1.9478625848 -3.5865907872 -5.8251383289
H 2.2891586059 -2.1144030350 -5.1910121240
C -5.4961055776 -0.7333247283 -0.4260508308
N -6.2462282674 0.3593277446 -1.0789718696
C -5.6697309821 -2.0124606455 -1.2674993947
C -6.0101229875 -0.9644941028 1.0359285152
N -5.4208444615 -2.0895079600 1.7763671863
N -5.9611930088 0.3020371218 1.7559117522
H -7.1145510681 0.0023030297 -1.4737526021
H -6.4956132042 1.0388697998 -0.3578709782
H -5.0310060606 -2.8208116025 -0.9033868845
H -6.7123006255 -2.3499751957 -1.2217049430
H -5.4149646374 -1.8201650395 -2.3129996141
H -7.0728624892 -1.2100042275 0.9238914949
H -4.4045726583 -2.1043955703 1.7124589955
H -5.7645268265 -2.9789085238 1.4192539435
H -6.4582723746 0.2093981362 2.6391623022
H -5.0026247704 0.5637421692 1.9763892696
