103
# extracted from Terachem optimization
Fe 0.0237801284 -0.0620156075 0.0363881318
O 0.2368719401 2.1407322953 0.0223099629
C 1.4094450472 2.3777492533 -0.7895390261
S 1.7273837581 4.1921003989 -0.8591384000
C 0.0637608524 4.5243538368 -0.1512138698
C -0.2082628812 3.3213370015 0.7408089683
H 0.3353494836 3.4006440256 1.6887974192
H -1.2710929338 3.1953552853 0.9389606341
H -0.6599386065 4.5746240316 -0.9725865575
H 1.1319260628 2.0406459487 -1.7889832741
O 2.1641023898 0.2003225299 0.0055750246
C 2.6132312791 1.5757559159 -0.2861571969
C 3.3240580570 2.0019503895 0.9894166893
C 4.0904445091 0.7191862895 1.3457834030
C 3.0769387473 -0.3797786170 1.0151297521
H 2.4702725831 -0.6588074071 1.8748625383
H 3.5267202439 -1.2713452391 0.5737795761
H 4.9557251573 0.6331198836 0.6792553268
H 3.9811666061 2.8600887612 0.8408206887
H 2.5885021638 2.2428595423 1.7659419804
H 3.3339457578 1.5187093315 -1.1124594893
C 4.6524875359 0.6581610136 2.7765631357
N 3.6164410953 0.8513066892 3.7885098388
O 5.6410788161 1.6667909422 2.8120664409
H 5.0865942136 -0.3378870210 2.9415288648
H 3.5117527194 1.8460374622 3.9843348576
H 3.8347070786 0.3829875254 4.6646947195
H 6.2178069249 1.5418935581 3.5849591102
C 0.0531833022 5.8677012772 0.6001894574
N -1.2993188530 6.1256205228 1.0456276771
O 0.5815452416 6.7939807179 -0.3274256170
H 0.6896392223 5.7877472197 1.4927580319
H -1.8534585320 6.5034442234 0.2772194513
H -1.3306214449 6.7955840876 1.8115862335
H 0.7489815872 7.6464886563 0.1090388596
O 0.0527403271 -2.2112591389 0.2310729623
C -0.2158319133 -2.7115587507 1.5708694106
S 1.3418146108 -3.4963677926 2.1275007589
C 1.4539789404 -4.2138647532 0.4379359406
C 0.9299810775 -3.1218616517 -0.5112560065
H 1.7445118705 -2.5157901784 -0.9123170279
H 0.3565957846 -3.5545660270 -1.3331877054
H 0.8059397182 -5.0967692925 0.4087891002
H -0.9793552491 -3.4949633722 1.4919948211
O -0.1028531692 -0.3218679015 2.1382640314
C -0.7963564342 -1.5823236591 2.4214069583
C -0.7175949459 -1.7502930421 3.9370956156
C -0.7535457642 -0.2922283545 4.4312535681
C 0.0942661810 0.4392765083 3.3880379785
H 1.1616121424 0.4207819547 3.6248864646
H -0.2343240170 1.4646831812 3.2016249377
H -1.7877230729 0.0682614073 4.3844269357
H -1.5396443327 -2.3485167415 4.3346552588
H 0.2256433665 -2.2320346201 4.2158606292
H -1.8364149715 -1.4384871823 2.1064123209
C -0.3076566829 -0.0891048787 5.8921103549
N 1.0591951888 -0.5217278447 6.1305923143
O -1.2574521028 -0.8165415423 6.6482141516
H -0.3476290234 0.9836951305 6.1262437406
H 1.1157353897 -1.5338045542 6.2347283588
H 1.4650890032 -0.0935959778 6.9602165244
H -1.1717263949 -0.5972036812 7.5920553008
C 2.8799301123 -4.6700051390 0.0916561450
N 2.8722870524 -5.1950484789 -1.2538612092
O 3.2274892488 -5.5818964861 1.1127213905
H 3.5520620859 -3.7976798311 0.0943907024
H 2.4235037072 -6.1095548217 -1.2984546385
H 3.8024255575 -5.2709361606 -1.6593948113
H 4.1349244862 -5.9032031010 0.9758156701
O -2.1914096271 -0.0304417609 -0.2478181371
C -2.5964314170 -0.0481398203 -1.6403316292
S -3.0521227264 1.6841391060 -2.0202496438
C -3.9788679641 1.6445066211 -0.4304531436
C -3.1406583162 0.7711778347 0.5305256138
H -2.5539182391 1.3725176852 1.2259507781
H -3.7786041149 0.0893651359 1.0966283353
H -4.9402069370 1.1622458886 -0.6401045234
H -3.5030742207 -0.6605173672 -1.7253420630
O -0.2102494708 -0.1561844601 -2.1170740867
C -1.5122309372 -0.7180672035 -2.4645832983
C -1.6110355480 -0.5908178787 -3.9815331373
C -0.1478826498 -0.8141508578 -4.4091158524
C 0.6289991512 -0.0666692085 -3.3223790126
H 0.7367052266 0.9905085779 -3.5838489127
H 1.6028338231 -0.4998175059 -3.0834185708
H 0.0773203555 -1.8855071537 -4.3626925424
H -2.2954910169 -1.3179124096 -4.4222261104
H -1.9433942994 0.4156905052 -4.2584659717
H -1.4924408668 -1.7742094599 -2.1664044093
C 0.1818571793 -0.3617011603 -5.8462803622
N -0.0299510873 1.0617859955 -6.0396983660
O -0.6555125362 -1.1460996630 -6.6688981848
H 1.2441881912 -0.5597770390 -6.0446320173
H -0.9983081502 1.2938657710 -6.2520392323
H 0.5891561432 1.5001694411 -6.7170579785
H -0.3882318933 -1.0540488920 -7.6003568589
C -4.2944643010 3.0465675938 0.1154201111
N -5.0404476160 2.8894037529 1.3381997382
O -4.9499955776 3.6976183177 -0.9575386469
H -3.3607399661 3.5708683462 0.3719438383
H -5.9946998844 2.5793026514 1.1578050504
H -5.0801799813 3.7423740318 1.8911458862
H -5.2474135492 4.5784851283 -0.6743688364
