82
# extracted from Terachem optimization
Fe 0.1869595159 0.1271092015 0.1130437621
N 0.4607609761 2.1198079917 -0.0418365518
C 1.7398556250 2.4252068462 0.0070807302
O 1.9823982564 3.7216855914 -0.1483087992
C 0.7462463363 4.3136302716 -0.3058827605
C -0.1941430442 3.3175017173 -0.2397269222
H -1.2654699951 3.4022280468 -0.3164784023
N 2.2422408779 0.2010997339 0.2928940428
C 2.7560461028 1.3956192565 0.2268538652
S 4.4019124160 1.9674698573 0.3369294631
C 5.2870981675 0.3733267484 0.6488930407
C 4.5466305897 -0.8075905209 0.0016794873
C 3.1152204347 -0.9567160907 0.5255096762
H 5.3508055085 0.2186489855 1.7305528914
H 4.5401690712 -0.6908487811 -1.0883942955
H 5.0914951177 -1.7259097931 0.2373159877
H 3.1242933181 -1.1632276119 1.6048641296
H 2.6405243712 -1.8165200519 0.0474697673
C 6.7143697086 0.5647291703 0.1092158332
O 7.0459845537 1.4985921397 -0.5721105671
C 7.6992656734 -0.5495214088 0.5553820831
O 7.3437855876 -1.4339805698 1.2829061139
Cl 9.3160479391 -0.3752846220 -0.0787187004
C 0.7554582873 5.7836311689 -0.5181782656
O 1.7862645968 6.3999586023 -0.6199940517
C -0.6482562554 6.4335664880 -0.5962108872
O -1.6488786743 5.7793323617 -0.4862141449
Cl -0.6148279667 8.1546456105 -0.8446755518
N -0.0290061483 -1.8687441317 0.3617874051
C -0.2278050343 -2.1685907250 1.6282317981
O -0.4325175484 -3.4631308340 1.8415249591
C -0.3662071068 -4.0584141338 0.5990379195
C -0.1178856278 -3.0669189559 -0.3150908546
H -0.0069574815 -3.1561465755 -1.3826681209
N -0.0427071738 0.0549697322 2.1724116506
C -0.2279504372 -1.1352838995 2.6650327326
S -0.4953157408 -1.6932754045 4.3006226180
C -0.2780956095 -0.0952354949 5.2068443942
C -0.7904743439 1.0838783958 4.3652456110
C -0.0183866911 1.2299169366 3.0530994882
H 0.7874095259 0.0406293178 5.4197197224
H -1.8622285757 0.9630935973 4.1691635184
H -0.6570940448 2.0052092889 4.9390811179
H 1.0336890304 1.4745505205 3.2572332730
H -0.4278456804 2.0646196546 2.4794916383
C -1.0072976042 -0.2551543377 6.5486330393
O -1.7234867844 -1.1860632720 6.8073343064
C -0.6953105466 0.8822945912 7.5596394929
O 0.0835792873 1.7521298989 7.2861848796
Cl -1.5507817671 0.7541219666 9.0745979073
C -0.5625981235 -5.5300324222 0.5756081203
O -0.7579025658 -6.1571169076 1.5865730635
C -0.4881754686 -6.1700077888 -0.8327488979
O -0.2695185561 -5.5087618045 -1.8111380567
Cl -0.7427762648 -7.8906557191 -0.8401377711
N -1.8067826695 0.3140272037 -0.1798136235
C -2.0926816199 0.2856374449 -1.4643715057
O -3.3856155234 0.4422966754 -1.7234016780
C -3.9970435990 0.5725423218 -0.4938578082
C -3.0148919391 0.4911720001 0.4600387728
H -3.1163160339 0.5462030350 1.5308578252
N 0.1308643339 -0.0359394319 -1.9423587460
C -1.0497885280 0.0956491805 -2.4743849810
S -1.5893791327 0.0731947407 -4.1377004717
C 0.0607768293 0.0456099250 -4.9705974138
C 1.0501723904 -0.8212677722 -4.1769417803
C 1.3158220480 -0.2510565094 -2.7817814976
H 0.4371351205 1.0727461378 -5.0300190023
H 0.6735228893 -1.8486199696 -4.1117312732
H 2.0020245521 -0.8489402588 -4.7148429972
H 1.8464411343 0.7079006134 -2.8585118052
H 1.9789308805 -0.9262154790 -2.2337942758
C -0.1899248993 -0.4433140425 -6.4038490156
O -1.2503897642 -0.8697068550 -6.7791398640
C 1.0420862582 -0.2908381358 -7.3363825393
O 2.0621730583 0.1956992287 -6.9349584564
Cl 0.7906486674 -0.8659070860 -8.9636075344
C -5.4675302672 0.7779990906 -0.5205859701
O -6.0725843808 0.8785223361 -1.5580996492
C -6.1338914706 0.8555547902 0.8756042780
O -5.4894077655 0.7648627910 1.8844482940
Cl -7.8579009544 1.0778771689 0.8213545094
