121
# extracted from Terachem optimization
Fe 0.1389702758 0.1710193208 -0.0298131239
O 0.5126520748 2.4005526851 -0.1269762166
C 1.8881382555 2.7299102642 -0.3124910878
S 2.1641856024 4.2165725337 0.7434587846
C 0.4962032063 4.8267012058 0.2304065588
C -0.2953378751 3.5926846219 -0.2802203796
H -1.2053982559 3.4302087002 0.2928527876
H -0.5576934663 3.7037746621 -1.3366695958
H 0.6414030849 5.5167869011 -0.6091903850
H 2.0571566411 3.0003134062 -1.3656942787
N 2.2381181910 0.4068015367 0.2339693658
C 2.7832110980 1.5692559152 0.0521832496
C 4.2184967522 1.8139130109 0.1055352724
C 5.0761860925 0.7697509992 0.0459356191
C 4.5078016613 -0.6269367919 0.0082635100
C 3.1418227955 -0.6706429285 0.6876290708
H 4.4384340346 -0.9530321104 -1.0423194711
H 5.1962818828 -1.3211338732 0.4974437436
H 4.5900720322 2.8323977502 0.0686788657
H 3.2642962408 -0.5499576686 1.7745764520
H 2.6375826081 -1.6244843355 0.5279325910
C 6.5918874701 0.9521063883 -0.0944267529
O 7.2581304014 -0.0742886382 0.6618810607
C 7.0014769959 0.6908132203 -1.5528739205
N 6.9521843663 2.3012719508 0.2688622101
H 7.2748703636 0.1966131436 1.5947940337
H 6.5119024684 1.3993084789 -2.2251903383
H 8.0869931026 0.8024780981 -1.6383868418
H 6.7517760868 -0.3321480523 -1.8447948790
H 6.7793990585 2.4944225824 1.2543635270
H 7.9380119564 2.4711693650 0.0820945707
C -0.2119066446 5.6339814465 1.3529565109
O -1.5122064224 5.9939275834 0.8406403092
C -0.5038138259 4.8407547781 2.6259683479
N 0.6505264686 6.7396481925 1.6795783180
H -1.4031162136 6.7332533271 0.2193904949
H 0.4204548597 4.4725734612 3.0737552426
H -1.0130286353 5.4952683815 3.3394474606
H -1.1764775271 4.0026263998 2.4226466198
H 0.8608413949 7.3313237476 0.8778853624
H 0.2585517933 7.3200639271 2.4175171517
O 0.0283292075 -2.0838989881 0.3245346984
C -0.5296439956 -2.4269856833 1.5885689847
S 0.3875830997 -3.9370517449 2.1132225405
C 0.3294782882 -4.5150968214 0.3576455633
C 0.0939287422 -3.2553196981 -0.5179898408
H 0.9044113940 -3.0902582509 -1.2261019310
H -0.8480207126 -3.3451304810 -1.0697120410
H -0.5412912116 -5.1740143130 0.2595696478
H -1.5936491109 -2.6780999861 1.4606857674
N -0.1596821151 -0.0936408558 2.0651926819
C -0.4081537571 -1.2692616112 2.5538610521
C -0.6292437276 -1.5315022231 3.9701885571
C -0.8785087602 -0.5024864157 4.8117799652
C -0.8768682584 0.8978580194 4.2498483822
C 0.0589762306 0.9884002749 3.0487688262
H -1.9069133294 1.1697174667 3.9682975283
H -0.5692098213 1.6106148033 5.0192536942
H -0.6913571549 -2.5563699218 4.3197222613
H 1.1048205012 0.9092956053 3.3825830244
H -0.0359143729 1.9444642401 2.5328223025
C -1.2419159024 -0.7017281532 6.2856678295
O -0.5886606201 0.3249894608 7.0566381431
C -2.7435571110 -0.4499631043 6.4907809748
N -0.9232023378 -2.0500581864 6.6873421432
H 0.3358129521 0.0596574537 7.1946642536
H -3.3373440080 -1.1628083519 5.9137904716
H -2.9742904710 -0.5645012179 7.5545332184
H -3.0066547700 0.5709770893 6.2039242068
H 0.0782799985 -2.2348154423 6.6509402660
H -1.2403913297 -2.2238736470 7.6386016043
C 1.5677191719 -5.3596840927 -0.0510934295
O 1.3992726869 -5.6440712320 -1.4581343460
C 2.9060483622 -4.6281701932 0.0448264513
N 1.5996445857 -6.5082538593 0.8137647185
H 0.8012410256 -6.4048856958 -1.5431945491
H 3.0956230913 -4.2924190708 1.0657676868
H 3.7033619050 -5.3119440234 -0.2612490115
H 2.9376730823 -3.7744931210 -0.6388472655
H 0.7442451538 -7.0595885412 0.7861904676
H 2.3904810121 -7.1156754198 0.6137980353
O -2.1303457952 0.1911967595 -0.3422325301
C -2.5319634519 -0.1022028629 -1.6817639209
S -3.6638164379 1.2516707373 -2.2062000906
C -4.3661758234 1.1695586900 -0.5034146159
C -3.1591487312 0.9037799231 0.4073862112
H -2.7150835507 1.8355495642 0.7590525961
H -3.4343437656 0.2895862358 1.2665830146
H -5.0339723890 0.2983438028 -0.4738754095
H -3.0943937560 -1.0469720464 -1.6855772845
N -0.1501820172 -0.1082280827 -2.1044368228
C -1.3412111143 -0.2373229362 -2.6007845199
C -1.6133574068 -0.5624907478 -3.9953904955
C -0.6254690754 -1.0645353037 -4.7701601052
C 0.7502962101 -1.2119651571 -4.1697896943
C 0.9683547460 -0.1756617137 -3.0702540930
H 0.8580820754 -2.2349731719 -3.7752746032
H 1.5109398704 -1.1015861446 -4.9472206819
H -2.6312818273 -0.5062977988 -4.3664151592
H 1.0669851435 0.8240677488 -3.5198734910
H 1.8884245720 -0.3744051584 -2.5160174626
C -0.8652958182 -1.5826678807 -6.1921994871
O 0.2724338054 -1.2443490419 -7.0051496788
C -0.8937319514 -3.1193976685 -6.1784311787
N -2.1284170867 -1.0859902696 -6.6811184717
H 0.1819202990 -0.3195102616 -7.2893070242
H -1.7095269136 -3.4842850812 -5.5499004080
H -1.0399260795 -3.4768516961 -7.2026951566
H 0.0580598226 -3.5205891056 -5.8217230532
H -2.1298014854 -0.0719532956 -6.7823126166
H -2.3451651230 -1.4928424856 -7.5884568549
C -5.2140003482 2.4075927947 -0.0944622816
O -5.5160621885 2.2194306618 1.3066216415
C -4.4855857936 3.7506258432 -0.1707969881
N -6.3506222728 2.4503145261 -0.9733708705
H -6.3094301230 1.6628513871 1.3714078774
H -4.1195092446 3.9447455721 -1.1808378693
H -5.1894150667 4.5412706425 0.1058881826
H -3.6566298757 3.8089025861 0.5383008086
H -6.9026768547 1.5951641321 -0.9699101597
H -6.9584018495 3.2402711587 -0.7721082914
