103
# extracted from Terachem optimization
Fe 0.0631831083 0.0939072274 0.0305184663
O 0.2461019051 2.2537334850 0.1098299901
C 1.4618137363 2.5580039529 -0.6315433303
S 1.7448386590 4.3708923339 -0.5744711680
C 0.0167790517 4.6450411416 0.0118978381
C -0.2808152299 3.3995554992 0.8318757951
H 0.1970438264 3.4550984509 1.8169730289
H -1.3513169925 3.2223199504 0.9469282629
H -0.6514009868 4.7216588974 -0.8522151683
H 1.2412737438 2.2494872200 -1.6551201729
O 2.2103373876 0.3499166190 0.0651290927
C 2.6443621429 1.7536771006 -0.0944585561
C 3.2545847147 2.0903124673 1.2559964927
C 4.0466654522 0.8077740852 1.5546047233
C 3.1336335720 -0.3020144917 1.0152752680
H 2.5186827925 -0.7710912148 1.7846658405
H 3.6762462439 -1.0773944069 0.4694571386
H 4.9653656226 0.8381201739 0.9574873257
H 3.8921633848 2.9738109411 1.2311132715
H 2.4600968973 2.2592520341 1.9945353487
H 3.4239863917 1.7679357233 -0.8676780352
C 4.5115054525 0.6288590059 3.0212998252
N 3.5027249170 0.5174060777 4.0586736862
O 5.3000446495 1.7692154741 3.2605201576
H 5.1036962786 -0.2987173915 3.0779926947
H 2.8238633800 1.2733502437 4.0318731996
H 3.0449585661 -0.3884353609 4.0932966025
H 5.6201589252 1.7140624780 4.1771926636
C -0.0539847224 5.9644385137 0.8171173275
N -1.3681103917 6.3679891643 1.2370999256
O 0.4902882012 6.9172381182 -0.0629956114
H 0.5564949765 5.8489696710 1.7281766221
H -2.0658761897 6.3713790018 0.4992681711
H -1.7138931076 5.9450485314 2.0904135049
H 0.3893076306 7.7905476180 0.3541051026
O 0.1514763558 -2.2117337791 0.1097039550
C -0.2399912365 -2.8170824306 1.3687306671
S 1.2856984990 -3.5283029159 2.0768753836
C 1.6866816318 -4.1218664283 0.3770449045
C 1.1359421389 -3.0405796344 -0.5769913304
H 1.9255244265 -2.3623326835 -0.9109984645
H 0.6534125377 -3.4927290343 -1.4487169802
H 1.1656804320 -5.0737307667 0.2303200863
H -0.9493050706 -3.6266259328 1.1577384368
O -0.2062930443 -0.4882648012 2.0117809771
C -0.9495532960 -1.7454544350 2.1842459543
C -1.0553829426 -1.9292558959 3.6936954076
C -1.1532848477 -0.4820406387 4.2024005889
C -0.2071155522 0.2676396643 3.2685026880
H 0.8201805814 0.2775312161 3.6427885817
H -0.5240099405 1.2874594564 3.0405187466
H -2.1770713594 -0.1214573121 4.0464977673
H -1.9175019482 -2.5319647793 3.9846218772
H -0.1511567882 -2.4109794714 4.0824367710
H -1.9379781522 -1.5938470756 1.7360685094
C -0.8502599727 -0.2899985744 5.7142723846
N 0.4047755012 -0.7650336407 6.2282847000
O -1.9209705195 -0.9577611095 6.3436741793
H -0.8718960498 0.7939128557 5.9211047556
H 0.6386981413 -1.7293674101 6.0206279437
H 1.1994910959 -0.1421818619 6.1545208204
H -1.7175373616 -0.9806417436 7.2948811293
C 3.2022342484 -4.3832321021 0.2120906531
N 3.5851680401 -5.0573881615 -1.0003288687
O 3.5466590385 -5.1615146206 1.3308059164
H 3.7265551196 -3.4112806681 0.2171594582
H 3.0267711826 -5.8825900760 -1.2027246324
H 3.6635347392 -4.4635100861 -1.8187405469
H 4.4294456274 -5.5337260068 1.1583351543
O -2.1962470212 0.0439427179 -0.3112927820
C -2.5274938179 -0.0535919036 -1.7222143377
S -3.0359681785 1.6338217763 -2.2029103331
C -4.0355620947 1.6435995831 -0.6486441371
C -3.2210841793 0.8136490122 0.3744175981
H -2.7042399783 1.4523561873 1.0961529315
H -3.8661770216 0.1154870291 0.9165862349
H -4.9883018213 1.1509553838 -0.8692428524
H -3.3913937671 -0.7232987459 -1.8218501476
O -0.1187438999 -0.0124995077 -2.0634685747
C -1.3586373040 -0.6980924773 -2.4428739832
C -1.3711287552 -0.6861415589 -3.9668373348
C 0.1279176086 -0.7506222495 -4.3075945036
C 0.7422632745 0.1546797846 -3.2456575702
H 0.6978702205 1.2081209893 -3.5420068169
H 1.7600941260 -0.1069196391 -2.9482464639
H 0.4793837297 -1.7782089710 -4.1538197227
H -1.9290574413 -1.5223764533 -4.3907675822
H -1.8124220264 0.2458325428 -4.3387721458
H -1.2696616574 -1.7215325299 -2.0603020484
C 0.4750792525 -0.3864439720 -5.7766232872
N 0.1073371229 0.9142271377 -6.2688529546
O -0.1881450514 -1.3914543041 -6.5124493581
H 1.5696154898 -0.4580941382 -5.8912772180
H -0.8508576164 1.1947725830 -6.0879220082
H 0.7624427156 1.6617001593 -6.0719380558
H -0.1112491311 -1.1463448794 -7.4508899270
C -4.3568069625 3.0742168967 -0.1665234986
N -5.2487381894 3.1567514065 0.9640789101
O -4.9348003987 3.7075398961 -1.2773511233
H -3.4118317059 3.5639775662 0.1338201393
H -6.0942638128 2.6028556601 0.8490351200
H -4.8221606842 2.9702481378 1.8657676114
H -5.3731320437 4.5135016786 -0.9522292405
