139
# extracted from Terachem optimization
Fe 0.2837214350 0.2779210298 -0.1930318213
O 0.4422868067 2.4483279508 -0.1412986603
C 1.6452080363 2.8145395945 -0.9017889769
C 1.7669282624 4.3273632885 -1.1204505516
C 1.5320145746 5.1930251182 0.1314923039
C 0.3200268062 4.6511579003 0.8584233708
C -0.1390068307 3.4132040029 0.6958053273
H 2.4022383848 5.0942351351 0.7936039254
H 1.0151145302 4.5874572505 -1.8708323559
H 2.7436735172 4.5365298875 -1.5712401360
H -1.0383997661 3.0157514957 1.1490937132
H -0.2296911188 5.3022361234 1.5303438795
H 1.4552831206 2.3535900410 -1.8752186552
O 2.4485926904 0.6666323555 -0.2363272908
C 2.8531399425 2.0708737053 -0.3137423234
C 3.4084221015 2.5390204008 1.0338716367
C 4.5054001790 1.6256995573 1.6452253790
C 4.0793095195 0.1387808759 1.5010188923
C 3.5798990350 -0.1935060393 0.1082737803
H 4.5168518122 1.8389974365 2.7190172270
H 3.8024978799 3.5534160879 0.9222596329
H 2.5754539677 2.5916771946 1.7456105930
H 3.6304504408 2.1160970317 -1.0853181775
H 3.2111060130 -1.2176076885 0.0465901628
H 4.3519355944 -0.0495615352 -0.6577155555
H 4.9068862754 -0.5251424583 1.7618164811
H 3.2644592831 -0.0672177518 2.2047563931
C 5.9339153612 1.8787464917 1.1532224262
C 6.2459877765 2.4430790050 -0.0263834413
C 7.0200902915 1.4793299882 2.0867763471
C 8.2562479852 2.0258629577 2.1158344852
O 6.6243623110 0.5177675244 2.9739753730
H 7.2748944903 2.5583877525 -0.3490836114
H 5.5014966130 2.8318637175 -0.7111542101
H 9.0096001676 1.6849660542 2.8203724300
H 8.5364232759 2.8355975824 1.4558033981
H 7.3409132445 0.3424509030 3.6083293471
C 1.3887033168 6.6880514460 -0.1688578187
C 1.2456202308 7.1939743956 -1.4057771741
C 1.4285166085 7.6165036953 0.9852700031
C 1.7542307699 7.2718506419 2.2571000328
O 1.1062133066 8.8841759419 0.6397252899
H 1.1597941215 8.2629379481 -1.5586693451
H 1.2258232517 6.5810327583 -2.2990219234
H 1.7741739813 8.0111040886 3.0521910240
H 2.0286063167 6.2630358582 2.5324826813
H 1.2116523040 9.4847780489 1.3971305847
O 0.3119413480 -2.0055266763 -0.1430309724
C -0.6914469711 -2.4194305413 0.8366857412
C -0.9413262333 -3.9326357104 0.8403328228
C 0.3295184586 -4.8028440388 0.8670330568
C 1.3185863287 -4.2130364342 -0.1138130945
C 1.2583875900 -2.9549873594 -0.5432287519
H 0.7651113691 -4.7461307250 1.8719811596
H -1.4940860973 -4.1485655360 -0.0778237069
H -1.6067463621 -4.1768052915 1.6760694690
H 1.9298076990 -2.5330244468 -1.2778864070
H 2.1027336585 -4.8414982628 -0.5227710417
H -1.6010262231 -1.9418288887 0.4652495810
O -0.0319563962 -0.3397691833 1.8254141973
C -0.3624529778 -1.7369768353 2.1702255987
C 0.7371640867 -2.2844122264 3.0652836717
C 0.8233335642 -1.4899650759 4.4055130269
C 0.8664557312 0.0281396312 4.1086900315
C -0.0820683064 0.5131216098 3.0129125139
H 1.7894479821 -1.7491365474 4.8503709119
H 0.5436177486 -3.3321411855 3.2963079844
H 1.6989426354 -2.2307553168 2.5408867289
H -1.3014677813 -1.7037026779 2.7409267363
H 0.1980107015 1.5098185562 2.6686899501
H -1.1265165874 0.5443936528 3.3388841187
H 0.6581823918 0.6051808155 5.0167240027
H 1.8894779415 0.2850499909 3.8114283388
C -0.2422313294 -1.9406841757 5.4083394654
C -1.3826519145 -1.2731815496 5.6540514846
C 0.0560872360 -3.1879052349 6.1606814059
C -0.3560355291 -3.4423312119 7.4190534821
O 0.8527679392 -4.0512985356 5.4533129028
H -2.1261826489 -1.6562418710 6.3447567712
H -1.6089191039 -0.3113532881 5.2077272216
H -0.1138428830 -4.3757872188 7.9197085741
H -0.9216505807 -2.7149815550 7.9859588139
H 1.0988894337 -4.8003945466 6.0229072014
C 0.0679158212 -6.2870026845 0.5918938490
C -1.0926744667 -6.7664995797 0.1097920585
C 1.1621337378 -7.2371079798 0.8930769664
C 2.3336280713 -6.9152115701 1.5047148940
O 0.8788892934 -8.4987552131 0.5024029847
H -1.2254262696 -7.8277698228 -0.0613988632
H -1.9420844409 -6.1341725241 -0.1188600550
H 3.0903307086 -7.6688528793 1.7010681747
H 2.5585895226 -5.9089103111 1.8291443104
H 1.5960987175 -9.1072695262 0.7493654709
O -1.9303393565 0.3109722263 -0.5203467810
C -2.3208793725 0.5665487828 -1.9135394346
C -2.5192038524 2.0696877201 -2.1098290152
C -3.6437693064 2.6195232124 -1.2000896655
C -3.6075129454 1.9084774754 0.1373977684
C -2.8013250361 0.8850602232 0.4143331495
H -3.4034057779 3.6752047630 -1.0165308925
H -2.7457526306 2.2883599445 -3.1554541057
H -1.5788566235 2.5779939922 -1.8731174335
H -2.7681935953 0.3618703208 1.3623605682
H -4.2909446111 2.2360091744 0.9146173631
H -3.2703071187 0.0397178958 -2.0576429306
O 0.0559237147 0.2453931183 -2.3286073672
C -1.2898472266 -0.1437655825 -2.7828784195
C -1.4572178233 0.1488308152 -4.2729392432
C -0.4089884884 -0.5969770074 -5.1290517861
C 0.9691440453 -0.1570503919 -4.5942145815
C 1.0974303887 -0.4425489239 -3.1044613153
H -0.5137296921 -0.2089599254 -6.1512968676
H -2.4734365214 -0.1221269490 -4.5658110834
H -1.3294787150 1.2231947497 -4.4433924833
H -1.3721412805 -1.2197712813 -2.5995374912
H 2.0421035439 -0.0864513302 -2.6889194330
H 0.9877815135 -1.5125753280 -2.9078469157
H 1.7943265862 -0.6525898499 -5.1144659243
H 1.0937636588 0.9182770668 -4.7704011717
C -0.6100061723 -2.1179794429 -5.2287788199
C 0.4008426887 -2.9938204729 -5.3142175484
C -2.0001048164 -2.6433201019 -5.3842008024
C -2.4443214341 -3.2539633043 -6.4872367183
O -2.7812091229 -2.4393015858 -4.2547783267
H 0.2052222363 -4.0520153493 -5.4528414533
H 1.4468016493 -2.7024840497 -5.2888593465
H -3.4579119713 -3.6405867818 -6.5654749818
H -1.8016240270 -3.3760136251 -7.3497684787
H -3.6641374540 -2.8091570839 -4.4284967963
C -5.0588550551 2.5800312472 -1.7930090734
C -5.3875837863 1.8693905105 -2.8847763828
C -6.1114430777 3.3690530121 -1.1098481360
C -5.8877010461 4.3428260798 -0.1919842352
O -7.3564671796 3.0256273936 -1.5147938270
H -6.4009547169 1.8736085770 -3.2672518966
H -4.6665856802 1.2802441077 -3.4406379506
H -6.7095861296 4.8927644266 0.2564918150
H -4.8913386412 4.6425983241 0.1027015364
H -8.0188322908 3.6269654101 -1.1331175993
