106
# extracted from Terachem optimization
Fe -0.2548654813 -0.3537256778 -0.3768428492
N -0.0396833809 1.6462150286 -0.2377216486
C 1.2132827872 2.0093525008 -0.1344684442
O 1.3755841853 3.3382750981 -0.0557320629
C 0.0973081356 3.8698490904 -0.1242984554
C -0.7666526174 2.8183703486 -0.2417372846
H -1.8392535811 2.8417303598 -0.3227673287
N 1.7648054705 -0.2402737483 -0.1670131483
C 2.2268825398 0.9753265441 -0.0798925398
N 3.5725067569 1.1053716572 0.0356526250
C 4.1037749731 -0.2365060877 0.4078871314
C 2.9288339689 -1.1412172209 -0.0846478777
H 2.7369507324 -1.9738433295 0.5922846207
H 3.1369700943 -1.5409317284 -1.0864278576
H 5.0135964096 -0.4311920048 -0.1651541384
H 3.9783484290 1.9416860489 0.4390211195
C 4.4256822073 -0.2762831628 1.9113645622
C 4.9620735289 -1.6104270293 2.4503321027
O 3.8243747530 -2.4976211976 2.5483791360
N 6.0577503226 -2.1096763143 1.6602235028
H 5.2086351959 0.4696897585 2.0955010956
H 3.5503064954 0.0150010991 2.5029743969
H 5.3571155656 -1.4243404427 3.4571514795
H 4.1331122790 -3.3261795587 2.9510633458
H 6.6198868101 -2.7921571024 2.1617638008
H 5.7400776179 -2.5387336903 0.7943413721
C -0.0595032975 5.3519295015 -0.0802955504
C -1.3436159379 5.8017787189 0.6543251103
O -2.5136752085 5.2351627382 0.0192696547
N -1.2892812055 5.4415534107 2.0379623876
H 0.8077827019 5.7931063702 0.4198614972
H -0.0754580465 5.7476358893 -1.1051254166
H -1.3942804710 6.8949578697 0.5947152356
H -2.7423864309 5.7684759784 -0.7603728993
H -2.0771883267 5.8484329096 2.5372067913
H -1.3526048170 4.4311713755 2.1481174435
N -0.4559407194 -2.3808894512 -0.2805900849
C -0.6674932970 -2.7857091535 0.9479441324
O -0.8552286661 -4.1067367816 1.0514175133
C -0.7645885312 -4.5956536212 -0.2409772453
C -0.5211529756 -3.5243225546 -1.0563582505
H -0.3842106095 -3.5222675555 -2.1249875572
N -0.4824781171 -0.5843219705 1.6497484084
C -0.6627030246 -1.8178627921 2.0233694238
N -0.8336251993 -2.0320143390 3.3524167826
C -0.3746962913 -0.7970741868 4.0470751333
C -0.4832744204 0.2331904203 2.8772937619
H 0.3438595903 0.9435048778 2.8804244546
H -1.4270787118 0.7926462726 2.9349368049
H -1.0746230806 -0.5565705262 4.8510076400
H -0.6428965672 -2.9415467040 3.7566182399
C 1.0278091538 -1.0152575137 4.6361882206
C 1.6189932531 0.1669987886 5.4169517808
O 2.0668919967 1.1237065322 4.4288560631
N 0.6949936442 0.6894968961 6.3900225687
H 0.9587395687 -1.8507336837 5.3437965842
H 1.7348992959 -1.3076733003 3.8507958643
H 2.4884701119 -0.2056102566 5.9733780980
H 2.4971760683 1.8540896916 4.9038670308
H 1.1575477576 1.2206737242 7.1229751751
H -0.0075902346 1.2880209752 5.9622029734
C -0.9496623949 -6.0622241836 -0.4395412800
C 0.0203836437 -6.6577668473 -1.4849887994
O -0.1681304265 -6.0077686821 -2.7567305186
N 1.3776704480 -6.5371836001 -1.0410413089
H -0.8051255280 -6.5720701932 0.5172291475
H -1.9814572106 -6.2582873753 -0.7607839331
H -0.2069756264 -7.7261009415 -1.5786404719
H -0.9000884625 -6.4396375737 -3.2272711409
H 1.9950417892 -7.0338933926 -1.6801887134
H 1.6651795458 -5.5598637563 -1.0531472167
N -2.2774867419 -0.0758535965 -0.6636197624
C -2.5499218670 0.0389874757 -1.9403428867
O -3.8146218264 0.4036704554 -2.1867735579
C -4.4098785250 0.5358091109 -0.9440241967
C -3.4567299237 0.2331220138 -0.0100339798
H -3.5530846441 0.2375161937 1.0630582607
N -0.3021100309 -0.2918340515 -2.3983894349
C -1.4874872881 -0.1241703975 -2.9119508894
N -1.5733873740 -0.1653995296 -4.2615931658
C -0.1877764791 -0.1038882318 -4.8038330350
C 0.6321061887 -0.4813559707 -3.5259840465
H 1.5201127463 0.1407496559 -3.4126482834
H 0.9486139714 -1.5325291980 -3.5539340946
H -0.0862060359 -0.8632594452 -5.5829623979
H -2.3525217037 0.2452594758 -4.7613275372
C 0.1054487663 1.2801376828 -5.3986114971
C 1.4400896970 1.4007367851 -6.1529673151
O 2.4719588893 1.3867692093 -5.1517442713
N 1.5679438193 0.3861731952 -7.1720073305
H -0.6849192174 1.5165621002 -6.1208106368
H 0.0786939087 2.0406330304 -4.6084967435
H 1.4378575304 2.3705659659 -6.6676942040
H 3.3208295017 1.5448040356 -5.5965802721
H 2.2227943390 0.6564027431 -7.9012463891
H 1.8912965556 -0.4942020578 -6.7769570036
C -5.8362388152 0.9632378953 -0.8976172714
C -6.0910610622 2.1184474183 0.1023444983
O -5.7201351669 1.7057589098 1.4307327676
N -5.3813341942 3.3039783067 -0.2834990823
H -6.1445278923 1.2806444168 -1.8975921945
H -6.4663706843 0.1090997329 -0.6168917954
H -7.1628149690 2.3469884006 0.0682671942
H -6.4553434481 1.2058602485 1.8224913222
H -5.7104020005 4.0938313806 0.2681916593
H -4.3877862954 3.2166289514 -0.0739119676
