175
# extracted from Terachem optimization
Fe 0.3257565707 0.3204536196 -0.1494760375
O 0.4319290557 2.6016030511 -0.1103033205
C 1.7345256434 3.0831765323 -0.6466246115
N 2.0433818836 4.4331730005 -0.3763738618
C 1.8082453770 4.8876101209 1.0117335549
C 0.4240361986 4.4671112791 1.4247799526
C -0.1704997042 3.4251271357 0.8452938818
H 2.5624631444 4.4060223265 1.6493431554
H 1.5414448320 5.0484439442 -1.0151966565
H -1.1951961202 3.1204752937 1.0133556950
H -0.1202951424 5.0428134731 2.1632644327
H 1.6319357364 2.9631912597 -1.7285323298
N 2.4334820538 0.8624736159 0.0307644565
C 2.8028348479 2.0836617156 -0.1702991677
S 4.3959742102 2.7959442062 -0.1007229809
C 5.4626093970 1.3451860455 0.3890426055
C 4.8295071153 0.0547466794 -0.1252612969
C 3.4185906336 -0.1671629964 0.4149167523
H 5.4844965263 1.3420229992 1.4828202636
H 4.8264770039 0.0608342805 -1.2198323396
H 5.4511334685 -0.7897513533 0.1895529218
H 3.4319451611 -0.2238163780 1.5121807852
H 3.0401037811 -1.1277551588 0.0587247488
C 6.9196388542 1.5817779783 -0.1092755428
O 6.8274491040 1.5478357240 -1.5331933571
C 7.4700418435 2.9495280045 0.3379473341
C 7.8033982421 0.4427989430 0.4308921810
C 8.1275701246 0.3687016201 1.7947029218
C 8.9388873848 -0.6562181441 2.2808486263
C 9.4429832237 -1.6251965391 1.4107775433
C 9.1240386139 -1.5629129740 0.0547935152
C 8.3066097500 -0.5396251960 -0.4311419870
H 7.6971980262 1.7832015055 -1.8960556443
H 7.4183741472 3.0845921498 1.4223979680
H 8.5235953337 3.0320624108 0.0499023220
H 6.9240959789 3.7672903480 -0.1432837136
H 7.7592482617 1.1196580124 2.4891336154
H 9.1851438256 -0.6915089319 3.3382986385
H 10.0820930997 -2.4182207767 1.7876485524
H 9.5124398014 -2.3098939094 -0.6317409086
H 8.0569887374 -0.5035250441 -1.4862853995
C 2.0541416066 6.4350161340 1.1543220336
O 1.6403671323 6.7696777692 2.4831257139
C 3.5466564352 6.7474948768 0.9852560931
C 1.1800331473 7.2377971023 0.1834628354
C -0.0374351318 7.7842904770 0.6152437528
C -0.8492478874 8.5002961876 -0.2646237827
C -0.4625274335 8.6857139278 -1.5930237425
C 0.7500156761 8.1568853531 -2.0335579395
C 1.5657644012 7.4416051095 -1.1528442846
H 2.4202710433 6.7660854066 3.0585382332
H 3.9328127313 6.4136601944 0.0198640888
H 3.7164976588 7.8238051034 1.0785302383
H 4.1262098018 6.2289428609 1.7605795173
H -0.3292950155 7.6754758211 1.6530056962
H -1.7820034888 8.9259984906 0.0946880914
H -1.0924465579 9.2512594115 -2.2734281857
H 1.0760286841 8.3153552693 -3.0577392461
H 2.5231388329 7.0738932903 -1.5111406819
O 0.2824098032 -1.9281172259 -0.1292831095
C -0.3663493023 -2.4860950107 1.0885911823
N -0.0759818013 -3.8408841501 1.3569036848
C 1.3362618173 -4.2343268014 1.1607355887
C 1.7593717577 -3.8198129508 -0.2268295399
C 1.2012011883 -2.7472019014 -0.7853873716
H 1.9352266234 -3.7023151605 1.9116669913
H -0.6725973835 -4.4571091162 0.8075923572
H 1.3767498644 -2.3905976087 -1.7940255357
H 2.4825617667 -4.4027326997 -0.7826979806
H -1.4378740389 -2.3778074150 0.8991772684
N 0.3114959622 -0.3146798317 1.9374306497
C -0.0070501216 -1.5291457615 2.2338364477
S -0.1935319447 -2.2691768064 3.8028841906
C -0.1407352493 -0.8135537263 4.9818773392
C -0.2830667344 0.5086435845 4.2311962538
C 0.6500344710 0.6171515698 3.0273386083
H 0.8405527878 -0.8671058213 5.4614149159
H -1.3229045139 0.6379709422 3.9141774415
H -0.0538688210 1.3208497186 4.9280457127
H 1.6898451033 0.4228144208 3.3279584874
H 0.6197281710 1.6275670127 2.6167920038
C -1.2258883697 -1.0115344230 6.0845163501
O -2.4703040935 -0.9242594589 5.3882210964
C -1.1141222348 -2.3830485465 6.7736629874
C -1.0784308404 0.1245644667 7.1141718309
C 0.0183782480 0.1703099421 7.9892552817
C 0.1396191810 1.1961338018 8.9267404513
C -0.8353596466 2.1927012331 9.0081388370
C -1.9271867970 2.1578838223 8.1414210494
C -2.0448544903 1.1344032949 7.1985087576
H -3.1767557427 -1.1668729243 6.0089678368
H -0.1266273400 -2.5446923481 7.2156064219
H -1.8458907602 -2.4454278190 7.5865662537
H -1.3216594330 -3.1933246605 6.0678694200
H 0.7822791392 -0.6022575631 7.9546924002
H 0.9913921256 1.2108502857 9.6007338561
H -0.7455764520 2.9859424174 9.7444120907
H -2.6936755691 2.9257071132 8.1980449538
H -2.8918734183 1.1165912422 6.5213295058
C 1.5307397719 -5.7547728374 1.4595337199
O 2.9076089428 -5.9527757736 1.1217557399
C 1.3396874218 -6.0182780945 2.9618748222
C 0.6201682352 -6.6346164217 0.5882438266
C 1.0961824469 -7.1596796344 -0.6230024713
C 0.2815742782 -7.9568602539 -1.4280304731
C -1.0285489354 -8.2421822302 -1.0411773082
C -1.5158766234 -7.7295996066 0.1614644710
C -0.6990907733 -6.9366135293 0.9705976851
H 3.1315321150 -6.8768793078 1.3217661203
H 0.3567125493 -5.7033724634 3.3198165424
H 1.4548528678 -7.0861150960 3.1761346674
H 2.1018690415 -5.4669862514 3.5209120673
H 2.1196654938 -6.9595125310 -0.9208923624
H 0.6763454256 -8.3634355878 -2.3549953369
H -1.6595676565 -8.8692077210 -1.6642053828
H -2.5277039778 -7.9602821221 0.4828157284
H -1.0912178325 -6.5734634961 1.9157592399
O -1.9239146812 0.1956803936 -0.2340961243
C -2.4539652566 -0.3021292025 -1.5332575294
N -3.7647376136 0.1151558140 -1.8498426018
C -4.0435623368 1.5380136267 -1.5506324919
C -3.7151635578 1.7851484291 -0.0991826396
C -2.7342995645 1.0881872262 0.4703819562
H -3.3943589907 2.1437022544 -2.1966880579
H -4.4570902195 -0.4679767698 -1.3823839127
H -2.4582988495 1.1091085667 1.5183963062
H -4.3013430406 2.4778782447 0.4909592776
H -2.4366851874 -1.3915505429 -1.4351853112
N -0.2133904890 0.3480204872 -2.2201679347
C -1.4149686009 0.0713912475 -2.5989269566
S -2.0590655484 -0.0614604306 -4.2133016326
C -0.5268691642 -0.0500729787 -5.2909312444
C 0.7312775364 -0.2885900620 -4.4586263783
C 0.8189136405 0.6225992809 -3.2355338656
H -0.4936779834 0.9465507475 -5.7397001477
H 0.7728164012 -1.3376681722 -4.1491445169
H 1.6010224450 -0.1038493842 -5.0968689206
H 0.7295994858 1.6758055732 -3.5388685784
H 1.7923618341 0.5053835916 -2.7503922467
C -0.7053900077 -1.0885064809 -6.4404359456
O -0.7057164618 -2.3574840448 -5.7852427121
C -2.0328306841 -0.8985436046 -7.1966694385
C 0.4873027755 -0.9473096745 -7.4044406648
C 0.6101282119 0.1743205084 -8.2398731226
C 1.6844154259 0.2916692952 -9.1216434122
C 2.6533870689 -0.7119917130 -9.1858423289
C 2.5420899560 -1.8285938236 -8.3579421482
C 1.4697106748 -1.9432560205 -7.4704278146
H -0.9365805995 -3.0330549404 -6.4436610320
H -2.1379236472 0.1112163409 -7.6037891561
H -2.0753541448 -1.5937948585 -8.0423187299
H -2.8872611876 -1.1058856915 -6.5450477263
H -0.1389336435 0.9616064459 -8.2171597695
H 1.7587065716 1.1632555100 -9.7656026318
H 3.4845498023 -0.6247329564 -9.8793087399
H 3.2881685980 -2.6170144855 -8.4023878470
H 1.3905528528 -2.8111567613 -6.8246320163
C -5.5073959867 1.9250800346 -1.9383065680
O -5.5668649286 3.2911241671 -1.5193098033
C -5.6828699068 1.8553871105 -3.4631043369
C -6.5427470273 1.0715716165 -1.1886232115
C -7.1106937111 1.5413449923 0.0052972619
C -8.0485029803 0.7781806908 0.7019622266
C -8.4341667637 -0.4740440127 0.2220068896
C -7.8799215366 -0.9542260549 -0.9650849552
C -6.9459942454 -0.1880606720 -1.6661861675
H -6.4367389287 3.6417788555 -1.7735780111
H -5.4730922812 0.8612474423 -3.8653995855
H -6.7098961487 2.1203645621 -3.7366570141
H -5.0025306991 2.5690213709 -3.9381552557
H -6.8297938446 2.5214292109 0.3753897455
H -8.4841698866 1.1684751984 1.6175074637
H -9.1699556712 -1.0643013331 0.7602710241
H -8.1867212584 -1.9192634794 -1.3586417098
H -6.5539986221 -0.5683791266 -2.6047861056
