157
# extracted from Terachem optimization
Fe -0.1671675213 -0.4238133418 0.2617179964
O -0.1928392787 1.7248913045 0.2309779651
C 1.0140694037 2.6721748141 0.5905085294
N 1.1489910592 3.7389650442 -0.2673284474
C -0.0291965654 4.6355825085 -0.4042340115
C -1.2883672043 3.8172906706 -0.2938898950
C -1.3274164433 2.5080099216 -0.0326142647
H 0.0080381212 5.3609679687 0.4227757126
H 1.6376397095 3.5731871875 -1.1398518686
H -2.2332757282 1.9208467534 0.0181276793
H -2.2405856484 4.3252010439 -0.4148231682
H 1.8542637201 1.9876036813 0.5583227149
H 0.7500753369 2.9832060574 1.6027535926
C 0.0834956967 5.4512979809 -1.6961131919
C -0.7223521185 5.2290022464 -2.7374856942
C 1.2032796819 6.5128009488 -1.6972062986
N 1.0022017400 7.3726212021 -0.5293582968
O 2.4625824856 5.8551556628 -1.5162536043
C 1.3297712790 7.2817975103 -3.0152149720
H -0.6574722293 5.8109092810 -3.6496343485
H -1.4921117447 4.4628336904 -2.7161386857
H 1.7369785549 8.0800124346 -0.4963420442
H 0.1094396183 7.8632319254 -0.5736964272
H 2.5528960790 5.7037879687 -0.5587680845
H 1.5544945247 6.6080694589 -3.8473187835
H 0.4185537665 7.8427534697 -3.2419647430
H 2.1599060035 7.9877066317 -2.9250842053
O 2.0988279741 -0.4144183112 0.3026411782
C 2.9867732175 -0.2861674611 1.5298199847
N 4.0864724268 -1.1543925479 1.5271423121
C 4.9968074565 -0.9806581453 0.3587886545
C 4.1836612767 -0.7212645677 -0.8822462587
C 2.8695480983 -0.4843527269 -0.8658291496
H 5.6211484790 -0.0997719056 0.5752756025
H 3.8342829197 -2.1313765322 1.6573248156
H 2.2539399345 -0.3260221401 -1.7419538479
H 4.6874566527 -0.6959108629 -1.8437159766
H 2.3070538660 -0.4803677091 2.3545736056
H 3.3244378797 0.7533440854 1.5206592151
C 5.9531629464 -2.1709327772 0.2770152056
C 5.8360834337 -3.1050130979 -0.6691879432
C 7.0240184738 -2.2110161480 1.3894374508
N 7.7463777262 -0.9375565891 1.3587502230
O 6.4077687500 -2.3212101494 2.6619238470
C 7.9783493923 -3.4110589604 1.2979316537
H 6.5117254104 -3.9500090450 -0.7375206542
H 5.0582082939 -3.0571957731 -1.4261036377
H 8.3547551022 -0.8343189520 2.1695256991
H 8.2702970662 -0.7744186963 0.5005475759
H 5.8298332343 -1.5459789509 2.7817848797
H 7.4203957588 -4.3488702844 1.3756786133
H 8.5505993915 -3.4021502884 0.3664858147
H 8.6738558225 -3.3633773867 2.1396847671
O -0.1448527990 -2.5380674869 0.2463043681
C -1.3802927577 -3.4826889910 0.6497297000
N -1.5380986949 -4.5386032312 -0.2031036294
C -0.3794503912 -5.4543272658 -0.3692384268
C 0.8954094661 -4.6618844635 -0.2548646634
C 0.9686082512 -3.3514842779 -0.0033683683
H -0.4212235365 -6.1968434324 0.4418618854
H -2.0746553718 -4.3917444098 -1.0502805109
H 1.8938348449 -2.7965600249 0.0585506684
H 1.8341764294 -5.1966345492 -0.3649008572
H -2.2038876091 -2.7786681884 0.6358441763
H -1.0746984626 -3.7795281378 1.6538002452
C -0.5181744915 -6.2380543378 -1.6787426898
C 0.2852263220 -6.0073592586 -2.7203574574
C -1.6590718574 -7.2759447171 -1.6958307797
N -1.4737378752 -8.1606028373 -0.5433468399
O -2.9020295702 -6.5873010618 -1.4909941628
C -1.8106689296 -8.0116478866 -3.0287547901
H 0.2038292175 -6.5692780225 -3.6437691276
H 1.0693091150 -5.2562356364 -2.6864963843
H -2.2066520138 -8.8712883473 -0.5464493771
H -0.5841216163 -8.6561994057 -0.6008704259
H -3.0085506688 -6.5173095617 -0.5257282740
H -2.0264645320 -7.3177220369 -3.8466546833
H -0.9135807921 -8.5877535313 -3.2741420135
H -2.6553887393 -8.7013702553 -2.9480269024
O -2.3846981832 -0.4458326358 0.2626456782
C -3.2948080504 -0.3868885112 1.4947919263
N -4.3311471145 0.5370281765 1.3791395206
C -5.2436673794 0.3076639019 0.2222111767
C -4.4671988887 -0.2561058031 -0.9391501594
C -3.1709164540 -0.5740080137 -0.8927186844
H -5.9904704571 -0.4338463219 0.5444896444
H -4.0529102232 1.5102509007 1.4622430465
H -2.6103244614 -0.9836758447 -1.7238348988
H -4.9994486388 -0.4528260191 -1.8650998595
H -2.6023384766 -0.1636580774 2.3014049627
H -3.6876001869 -1.4033412599 1.5768386479
C -6.0199317200 1.5892502343 -0.0877386480
C -5.7803322620 2.3045789513 -1.1899043749
C -7.0638976841 1.9890258878 0.9771745870
N -7.9521859453 0.8445691556 1.1832307083
O -6.4024980667 2.2360944344 2.2172248836
C -7.8164322832 3.2852952781 0.6564708868
H -6.3353292144 3.2056421584 -1.4241188982
H -5.0266152369 2.0067172865 -1.9133145760
H -8.6158419002 1.0431111842 1.9314152496
H -8.4748210661 0.5975791359 0.3437607259
H -6.1161391734 1.3709268407 2.5603995952
H -7.1252317987 4.1294294281 0.5769733908
H -8.3903754732 3.1976179710 -0.2700681780
H -8.5062950549 3.4954148692 1.4780695210
O -0.1741790501 -0.4035893646 2.5866190941
C -0.2723141464 0.8208152966 3.4651707294
N -0.9694911424 0.6060339481 4.6668670442
C -0.3764145285 -0.4580852271 5.5290109831
C 0.1045489253 -1.5970460419 4.6699697674
C 0.1582995266 -1.5367477733 3.3369392084
H 0.4831858239 -0.0001692903 6.0430784568
H -1.9676265702 0.4545253657 4.5369189313
H 0.4761288873 -2.3524433260 2.6989561280
H 0.4456629184 -2.5100589858 5.1482821241
H -0.7598354974 1.5600280909 2.8314360469
H 0.7638909685 1.1014894483 3.6758774727
C -1.3709620298 -0.8466342321 6.6236793590
C -2.0114248675 -2.0175823326 6.6128514635
C -1.5919867363 0.2340332526 7.7050430222
N -0.2849531186 0.5773280529 8.2699045117
O -2.1297098936 1.4100084970 7.1271363669
C -2.5885821959 -0.1704692294 8.8035205074
H -2.7137349954 -2.3004534324 7.3885529306
H -1.8558034656 -2.7503681893 5.8262809793
H -0.3270583768 1.4199121631 8.8411321173
H 0.1743836949 -0.1800869560 8.7725980707
H -1.5138842694 1.7124330855 6.4345581836
H -3.5717629392 -0.3659180568 8.3655792045
H -2.2501995255 -1.0514490620 9.3551559747
H -2.6899697473 0.6655151090 9.4999341364
O -0.1394713575 -0.3888656742 -2.0554568646
C -0.3990291506 0.8457562268 -2.8771932201
N 0.2171646397 0.8202090193 -4.1442385044
C -0.2053515880 -0.3272093274 -4.9997218281
C -0.3380157892 -1.5670086136 -4.1554334137
C -0.2842930756 -1.5511881184 -2.8207172505
H -1.1908371840 -0.0638350411 -5.4157294824
H 1.2330360262 0.8679638418 -4.0882481895
H -0.3451102132 -2.4291657041 -2.1903733187
H -0.5036602831 -2.5234025653 -4.6415110391
H -0.0309758555 1.6577304430 -2.2552305860
H -1.4863461849 0.8957362191 -2.9794634159
C 0.7435802758 -0.4447669133 -6.1937902696
C 1.6267586890 -1.4399660398 -6.2988874939
C 0.6110148191 0.6918083657 -7.2318111597
N -0.7784724581 0.7080130722 -7.6991722325
O 0.8742447083 1.9475332778 -6.6359653056
C 1.5925127141 0.5820750257 -8.4100467466
H 2.3001813678 -1.5303919314 -7.1434388025
H 1.7084208046 -2.2131372133 -5.5405036709
H -1.0029403323 1.5669445384 -8.1986784511
H -1.0639019979 -0.1129726809 -8.2300572028
H 0.3263751227 2.0266743521 -5.8321586789
H 2.6227561780 0.6077471826 -8.0433017557
H 1.4303977213 -0.3325816448 -8.9859201855
H 1.4449315440 1.4441488078 -9.0653896617
