82
# extracted from Terachem optimization
Fe 0.2445707429 0.2926938357 0.0983699960
N 0.5409072510 2.4823274028 -0.1342829833
C 1.8417021206 2.6709258320 -0.0948850313
O 2.2072892443 3.9268764510 -0.3358887692
C 1.0336573474 4.6197068040 -0.5479844570
C 0.0059681465 3.7197545223 -0.4247748885
H -1.0528626006 3.8975746197 -0.5227462670
N 2.2661578267 0.4166699083 0.3148681194
C 2.7989501487 1.5997038159 0.2019541406
S 4.4584860829 2.1082405982 0.4036164014
C 5.3867751943 0.4629386264 0.5078629644
C 4.5084666771 -0.6871648426 0.0113531323
C 3.1295558922 -0.7181091348 0.6751150097
H 5.6636071042 0.3512395592 1.5610667455
H 4.4028835375 -0.6335089382 -1.0771544479
H 5.0261998108 -1.6257365341 0.2380840252
H 3.2298505222 -0.7361275423 1.7702177783
H 2.5999865445 -1.6259188800 0.3864487453
C 6.6815675883 0.6117244459 -0.2487714235
O 6.7136352938 0.5682489268 -1.5131981193
C 7.8989783262 0.8430494317 0.5330329442
O 7.9286960744 0.9002417129 1.7484381773
Cl 9.3536635150 1.0128120678 -0.4292176979
C 1.1843017561 6.0663937345 -0.8478648688
O 2.2690485913 6.5837382030 -0.9411189815
C -0.1517975652 6.8295523268 -1.0270708445
O -1.2097804841 6.2697864538 -0.9426559606
Cl 0.0431346136 8.5285576959 -1.3495654856
N 0.0254163718 -1.9594119660 0.4487275199
C -0.2166833101 -2.1258286579 1.7292367983
O -0.4797105101 -3.3891047098 2.0645119633
C -0.4020538166 -4.1068839464 0.8920429446
C -0.0932645348 -3.2160412660 -0.1040011355
H 0.0450153957 -3.4141162062 -1.1543763377
N -0.0102799723 0.1434791507 2.2345992890
C -0.2104878845 -1.0410604880 2.7250197533
S -0.4918762490 -1.5733137154 4.3716162627
C -0.2824988473 0.0318562937 5.2664503751
C -0.7615028610 1.2102064948 4.4054881274
C 0.0396688439 1.3240485966 3.1082562773
H 0.7788598160 0.1599698756 5.5034253387
H -1.8312557172 1.1064275604 4.1895906163
H -0.6217770105 2.1349458028 4.9722016499
H 1.0959019048 1.5304890497 3.3319842534
H -0.3251903101 2.1720090881 2.5220502000
C -1.0428231214 -0.1090814319 6.5930746516
O -1.7740371736 -1.0300961510 6.8449077416
C -0.7419191246 1.0342445202 7.6013221538
O 0.0472245923 1.8973393117 7.3368431178
Cl -1.6268683655 0.9229495345 9.1013663271
C -0.6477872267 -5.5655360154 1.0054714963
O -0.8783840167 -6.0917659800 2.0653285022
C -0.5781677817 -6.3376653374 -0.3365525744
O -0.3398938665 -5.7809314228 -1.3728998835
Cl -0.8752438500 -8.0455480690 -0.1805552177
N -1.7336220645 0.3594076387 -0.2114348159
C -2.0635762180 0.2043004894 -1.4776093323
O -3.3723706988 0.2489500074 -1.6888034170
C -3.9457019866 0.4508493856 -0.4505233246
C -2.9262766936 0.5189057937 0.4627509856
H -2.9885654564 0.6635238205 1.5278745781
N 0.1574564176 0.0035346850 -2.0514102249
C -1.0556420683 -0.0139725081 -2.5188099649
S -1.6794384876 -0.2816610570 -4.1250168082
C -0.1096871083 -0.5957368312 -5.0595469857
C 0.9965378961 -1.1387415475 -4.1402330115
C 1.2866117916 -0.2006804707 -2.9656777140
H 0.2155923459 0.3498038669 -5.5060522584
H 0.7220825725 -2.1338080240 -3.7698937718
H 1.9095958631 -1.2427361073 -4.7323084362
H 1.6071052220 0.7837621414 -3.3360721284
H 2.1146919681 -0.5951808272 -2.3718483107
C -0.4893739869 -1.5538973507 -6.2012213038
O -1.5646993900 -2.0857110075 -6.2882472953
C 0.6317074979 -1.7443368599 -7.2594626053
O 1.6763098252 -1.1632400089 -7.1695278499
Cl 0.2161452318 -2.8461157685 -8.5483848716
C -5.4290310131 0.5193579921 -0.4283830743
O -6.0806493819 0.3997035001 -1.4351846190
C -6.0447312540 0.7475310959 0.9744737681
O -5.3543007309 0.9066213526 1.9440113475
Cl -7.7838276900 0.7504212500 0.9898348248
