115
# extracted from Terachem optimization
Fe 0.0135329253 0.0171423043 0.0228029591
N 0.3059138088 1.9972010910 -0.1307170845
C 1.5955882737 2.3333436018 -0.0700398928
N 1.7268160717 3.6783964767 -0.1899270738
C 0.4702326202 4.2298614390 -0.3143355227
C -0.4036861056 3.1620357743 -0.2819530240
H -1.4809504235 3.1661923270 -0.3544388374
H 2.5520624115 4.2631705924 -0.0942185288
N 2.0473368172 0.0550081589 0.1911353125
C 2.5984018874 1.2996800380 0.1082549130
C 3.9739227800 1.5116656542 0.1760811929
C 4.8418339574 0.4252389150 0.3308735338
C 4.2609470302 -0.8475013134 0.4360514358
C 2.8778688541 -0.9856942225 0.3619439150
H 4.3782924710 2.5168004178 0.1080118053
H 2.4018425216 -1.9581073232 0.4207835636
H 4.8839058449 -1.7270022706 0.5614646826
C 6.3335500491 0.6112965023 0.4008660925
C 6.8778713102 0.7131559606 1.8500457393
O 6.1971058974 1.8278673431 2.4312736449
O 6.6040659278 -0.4515121398 2.5984999308
N 8.3032781750 0.8104693278 1.8114992690
H 6.8465457323 -0.2370351935 -0.0573647542
H 6.6264324776 1.5170592677 -0.1398629546
H 6.6198634208 1.9965504841 3.2915405379
H 5.6839469441 -0.3690659575 2.8953558303
H 8.6133035803 1.7265428013 1.5026444211
H 8.7123828296 0.5814360271 2.7135021016
C 0.2683782779 5.7000537942 -0.4919721775
C 1.0215075751 6.5707788659 0.5342563792
O 0.6434047478 6.1289214292 1.8311902772
O 2.4128089848 6.3247904773 0.3323615837
N 0.7562086994 7.9581066803 0.2787401664
H 0.6090773479 6.0220658872 -1.4820536590
H -0.7985506301 5.9276529306 -0.4232342460
H 0.6775155279 6.8959927903 2.4265360081
H 2.8656592138 6.5481891631 1.1631178609
H -0.1539608927 8.2606956591 0.6134138927
H 1.4913796855 8.5750043563 0.6100980644
N -0.1897487014 -1.9709042809 0.2914777937
C -0.4178794909 -2.2916132321 1.5660635599
N -0.5747591546 -3.6340112827 1.6825682086
C -0.4242175484 -4.2015027994 0.4364906699
C -0.1907570822 -3.1449430339 -0.4196922502
H -0.0303158319 -3.1650168380 -1.4870301266
H -0.6732742197 -4.2088139902 2.5145718793
N -0.2484175750 -0.0117566696 2.0465997269
C -0.4750591330 -1.2475687200 2.5722577188
C -0.7513491077 -1.4431351548 3.9249809826
C -0.8180602077 -0.3458200247 4.7897635615
C -0.5770922155 0.9204016554 4.2354201175
C -0.2974424547 1.0401033185 2.8776900578
H -0.9230614428 -2.4440471748 4.3085797163
H -0.1165339840 2.0073107151 2.4230085802
H -0.6158337800 1.8083789341 4.8572973214
C -1.1288285890 -0.5020952913 6.2538651519
C 0.1300427078 -0.4935208364 7.1616150992
O 0.9111007439 -1.6094922182 6.7302464108
O 0.8783711345 0.6945261851 7.0072612442
N -0.2773283403 -0.5125767420 8.5312567250
H -1.7524474980 0.3265343679 6.5969886423
H -1.6741714890 -1.4343446325 6.4313432592
H 1.6147047509 -1.7346993246 7.3906677400
H 1.4487124508 0.5509631490 6.2356271674
H -0.6483868107 -1.4168643848 8.8059209815
H 0.4834067598 -0.2368940030 9.1466046745
C -0.5685565874 -5.6722702697 0.2176187853
C 0.2523234038 -6.5394129758 1.1938958631
O 1.6045203089 -6.1029620840 1.1311431804
O -0.2638849551 -6.2797656697 2.4985015142
N 0.0562844917 -7.9271649716 0.8866637433
H -1.6141751183 -5.9786783775 0.3319010418
H -0.2663992742 -5.9177092322 -0.8039585317
H 2.1724219145 -6.8792262793 1.2662155326
H 0.4394089188 -6.5026715784 3.1317714814
H 0.5655225375 -8.2342339163 0.0629884219
H 0.2339379451 -8.5416858662 1.6753233030
N -1.9619950285 0.2258313317 -0.2796165749
C -2.2998420567 0.0936001596 -1.5625616227
N -3.6403182106 0.2467146875 -1.7045598193
C -4.1834680262 0.5045256951 -0.4652904255
C -3.1186561331 0.4812998254 0.4119933106
H -3.1240496297 0.6272277031 1.4814806688
H -4.2014845604 0.3031614803 -2.5492218116
N -0.0261019361 -0.2060984957 -2.0079503819
C -1.2740431022 -0.1721908500 -2.5537582630
C -1.5003512230 -0.3876536013 -3.9122841565
C -0.4229688602 -0.6513928007 -4.7657331164
C 0.8580584266 -0.6564637328 -4.1954187693
C 1.0081824561 -0.4349075552 -2.8298164500
H -2.5075452321 -0.3535521494 -4.3152841963
H 1.9860138869 -0.4494808319 -2.3624568868
H 1.7326321037 -0.8451673512 -4.8094455421
C -0.6146281627 -0.9008522523 -6.2374800739
C -0.5938553289 0.3930090834 -7.0936366731
O -1.7029264759 1.1657603100 -6.6264550797
O 0.6009574887 1.1208479796 -6.9202563387
N -0.6245122330 0.0426875216 -8.4793763461
H 0.1895888414 -1.5325947782 -6.6199560852
H -1.5650940836 -1.4144486019 -6.4157548265
H -1.7799161731 1.9318376655 -7.2216118759
H 0.5159102629 1.5893281349 -6.0747165791
H -1.5431306940 -0.2798242635 -8.7676490135
H -0.3236722464 0.8206101855 -9.0608294322
C -5.6527565167 0.6932477267 -0.2712011215
C -6.2888528888 1.7296933829 -1.2197363856
O -5.5730723417 2.9501016008 -1.0651144789
O -6.1064971778 1.2388405899 -2.5465686634
N -7.6955618596 1.8268961162 -0.9546355276
H -6.1887545490 -0.2484871998 -0.4323482547
H -5.8442327466 1.0043807740 0.7593125625
H -6.2017453902 3.6773846907 -1.2052125161
H -6.1126062683 2.0102439220 -3.1379366699
H -7.9109796716 2.3518095406 -0.1119555786
H -8.2284846560 2.1721314956 -1.7469785573
