82
# extracted from Terachem optimization
Fe 0.2207950421 0.1305238340 0.1098254744
N 0.4522878433 2.1003454175 -0.0679776990
C 1.7282605590 2.4259546732 -0.0208376418
O 1.9410078663 3.7174500285 -0.1982962942
C 0.6957591868 4.2887061114 -0.3698461225
C -0.2318967520 3.2813870390 -0.2917740526
H -1.3040542075 3.3528953427 -0.3720946917
N 2.2098099762 0.2012908058 0.3124437814
C 2.7408293026 1.4022865242 0.2234549073
S 4.3721997164 1.9490399587 0.3382584224
C 5.2523838911 0.3553921230 0.7066145847
C 4.5034852457 -0.8409399753 0.1044451063
C 3.0645126826 -0.9618028862 0.6196079905
H 5.3145601292 0.2541297396 1.7951571100
H 4.5121099177 -0.7799179833 -0.9899784681
H 5.0389683127 -1.7506653018 0.3905785209
H 3.0595110372 -1.1108923806 1.7078732271
H 2.5942349512 -1.8378920825 0.1702562652
C 6.6824204305 0.5591463132 0.1554530846
O 6.9805696235 1.5125602145 -0.5138563163
C 7.6736479510 -0.5518773205 0.5860288773
O 7.2907773124 -1.4587681848 1.2746693492
Cl 9.2912666907 -0.3413369926 0.0071302583
C 0.6921201971 5.7718124187 -0.6014188559
O 1.7271183216 6.3752297798 -0.6993414883
C -0.7198443490 6.3951540791 -0.6997849928
O -1.6925395259 5.6929599726 -0.6046700362
Cl -0.7323815823 8.1017335542 -0.9432877399
N -0.0112711302 -1.8378276767 0.3216342110
C -0.2165531592 -2.1547918449 1.5850822573
O -0.4528407899 -3.4414703950 1.7644268634
C -0.4022102616 -4.0173166701 0.5105595030
C -0.1314197920 -3.0183077246 -0.3888661551
H -0.0191275445 -3.0944877731 -1.4574550405
N 0.0234000472 0.0691142115 2.1167275692
C -0.1813039726 -1.1269687647 2.6234447345
S -0.4128420771 -1.6618883518 4.2503171733
C -0.1684815403 -0.0621138456 5.1630067578
C -0.6343457614 1.1289100916 4.3160283751
C 0.1324671733 1.2477243063 2.9966188267
H 0.8983794934 0.0309030683 5.3921018303
H -1.7124043467 1.0620486328 4.1291878903
H -0.4524872335 2.0424284594 4.8895364052
H 1.1992156566 1.4287785852 3.1875023176
H -0.2461465708 2.1051420090 2.4375345785
C -0.9314586375 -0.2329582101 6.4948201423
O -1.6420372015 -1.1782714258 6.7111350895
C -0.6462946511 0.9007346173 7.5142217643
O 0.1082976221 1.7882008212 7.2193127187
Cl -1.4746214670 0.7429625675 9.0251594276
C -0.6341470058 -5.4992517357 0.4719524332
O -0.8370630235 -6.1106756594 1.4871297987
C -0.5780449779 -6.1147803952 -0.9454546240
O -0.3551886688 -5.4112240851 -1.8964469843
Cl -0.8505946349 -7.8164529192 -0.9978108582
N -1.7650455806 0.2476452940 -0.1400471222
C -2.0798034517 0.2197487060 -1.4203869838
O -3.3822501253 0.2750872871 -1.6318430381
C -3.9712246987 0.3376657412 -0.3847207961
C -2.9640475971 0.3162738158 0.5447201951
H -3.0421095582 0.3479791556 1.6183102731
N 0.1591741924 0.0526168203 -1.9222939676
C -1.0408910239 0.1278557391 -2.4466007915
S -1.5825727042 0.1365065931 -4.0908625688
C 0.0575857131 0.2073121571 -4.9561462515
C 1.1161739594 -0.5834929583 -4.1773238377
C 1.3578246703 -0.0036965137 -2.7804160088
H 0.3528449779 1.2601037622 -5.0284069204
H 0.8302653027 -1.6395752096 -4.1142101008
H 2.0588971632 -0.5246112111 -4.7288858518
H 1.7653599118 1.0135193860 -2.8578647980
H 2.1036182664 -0.6073462939 -2.2586687095
C -0.2239590740 -0.2977290456 -6.3871197097
O -1.2999703699 -0.7255066172 -6.7117791068
C 0.9798254475 -0.1342521610 -7.3503421053
O 2.0054633269 0.3435941999 -6.9453793004
Cl 0.6915136364 -0.6695483485 -8.9703729421
C -5.4690276843 0.4288422030 -0.3808608715
O -6.0793570954 0.4789594740 -1.4148716856
C -6.0991084400 0.4548883488 1.0313740573
O -5.3923314972 0.4003506158 2.0038990160
Cl -7.8197134235 0.5631816773 1.0450144952
