148
# extracted from Terachem optimization
Fe 0.0507197328 -0.0911838733 -0.0377034355
N 0.5751205981 2.0349829280 -0.2220952906
C 1.8410139675 2.2641202192 -0.2155260258
S 2.4064125712 3.8566025726 -0.7083332599
C 0.6621891778 4.2830713637 -1.2214005835
C -0.2258553537 3.2238053136 -0.5382530295
H -0.6305086462 3.6095149390 0.4040959670
H -1.0699723054 2.9537980219 -1.1737047933
H 0.6206858992 4.1847309508 -2.3057811988
N 2.2573986261 -0.0239772330 0.2386705780
C 2.7787998628 1.1574524665 0.1780753512
S 4.4113508163 1.6702745422 0.5281933685
C 5.3288293057 0.0490582109 0.6609153288
C 4.5156497974 -1.1045069769 0.0884959091
C 3.0927852201 -1.1536513024 0.6529165695
H 5.5004117284 -0.1110772517 1.7255280809
H 4.4698099622 -1.0264241862 -1.0035803109
H 5.0365908414 -2.0337823532 0.3336656953
H 3.1211562047 -1.1803061271 1.7525744656
H 2.5806790030 -2.0622792282 0.3271184739
C 6.7082050323 0.2998644846 -0.0106332843
O 6.5864274737 0.5378829325 -1.3876504255
O 7.1983334964 1.4705577405 0.6064450592
C 7.7207181974 -0.8888185046 0.2114999887
N 7.5765744060 -1.3765607904 1.5790743514
O 7.2814601329 -1.9004357977 -0.7038215691
C 9.1495985811 -0.4621160584 -0.1571424211
H 6.7580276880 -0.3211769881 -1.8198427469
H 7.7091186991 1.9495082210 -0.0685431999
H 8.2178677469 -2.1542083414 1.7374806982
H 7.8617294390 -0.6376291527 2.2231858593
H 8.0283870559 -2.4878892729 -0.9029584362
H 9.2027885875 -0.0676408583 -1.1770419663
H 9.5247262164 0.2974982040 0.5329476387
H 9.8190805516 -1.3293734192 -0.0874159539
C 0.3621026876 5.7550378678 -0.8701422302
O 0.3253887613 5.9881621839 0.5179201915
O 1.4188449548 6.4711795239 -1.4830923666
C -1.0343623665 6.2188955237 -1.4141114894
N -1.1356136308 5.7819979977 -2.7988942695
O -2.0649503971 5.5122444550 -0.7320372681
C -1.2328480034 7.7336398415 -1.2190023040
H 1.1929412868 5.7393222540 0.8847046961
H 1.3782759554 7.3897708422 -1.1665327662
H -2.0549345363 6.0428152151 -3.1531617606
H -0.4433431516 6.2802502969 -3.3564987496
H -2.0891840672 5.8631752755 0.1735107054
H -1.1126244795 8.0309615792 -0.1715222250
H -0.5321566946 8.3163379394 -1.8269737008
H -2.2463110337 7.9947882283 -1.5388261016
N -0.2389593431 -2.2654228085 0.3054940858
C -0.4823960946 -2.5502158091 1.5346012609
S -0.9190853914 -4.2138159541 1.9375751212
C -1.0099156131 -4.5990461108 0.1144497564
C -0.2793655804 -3.4325881921 -0.5808442850
H 0.7540027371 -3.7046285125 -0.8216006623
H -0.7743414926 -3.1799177488 -1.5193813569
H -2.0655335832 -4.6126345224 -0.1533431373
N -0.3128360311 -0.2523136311 2.1168834036
C -0.4134852039 -1.4617790841 2.5684785227
S -0.4379362533 -2.0328446533 4.2193700161
C -0.4772538072 -0.4419884050 5.1885395016
C -1.0184059370 0.7002519138 4.3392877379
C -0.2264734448 0.8807773106 3.0444520882
H 0.5524909360 -0.2332628241 5.4795285672
H -2.0761445484 0.5320973211 4.1091261890
H -0.9471957466 1.6200866643 4.9259235771
H 0.8358270274 1.0575612659 3.2685220317
H -0.5824812058 1.7619963907 2.5032470032
C -1.2766645210 -0.7637151529 6.4823266905
O -2.6187510785 -1.0628024529 6.2137068927
O -0.6548142367 -1.9210744057 6.9989954933
C -1.2143328940 0.4016456096 7.5422220540
N 0.1321553560 0.9665630238 7.5407155497
O -2.1383252907 1.3791518108 7.0489093175
C -1.6857732477 -0.0867422426 8.9200988657
H -3.1114009710 -0.2297402477 6.3484926245
H -1.3484624847 -2.4340265808 7.4484618279
H 0.1840889872 1.7242761543 8.2220486766
H 0.7874051411 0.2522360155 7.8617322463
H -2.4505489282 1.9213516455 7.7912896788
H -2.6854858991 -0.5310291754 8.8722935372
H -0.9936602477 -0.8220399491 9.3376125113
H -1.7205103454 0.7626200195 9.6147492644
C -0.4399021333 -6.0081611639 -0.1484856117
O 0.9266257342 -6.1110118324 0.1782537255
O -1.2318252394 -6.8494710517 0.6689072618
C -0.5354764921 -6.4189629303 -1.6613490812
N -1.8529483553 -6.0366069312 -2.1457283800
O 0.3774061034 -5.6340126889 -2.4231618891
C -0.2021073641 -7.9110871090 -1.8519932560
H 1.0217949437 -5.9019024044 1.1252867289
H -0.8278453668 -7.7338926522 0.6685772630
H -1.8977233659 -6.2167994843 -3.1479312223
H -2.5571567147 -6.6231407293 -1.7004356893
H 1.2657783377 -5.8894073327 -2.1236886148
H 0.7774780705 -8.1682607959 -1.4330931582
H -0.9567835646 -8.5610435294 -1.3960090474
H -0.1839559486 -8.1249273040 -2.9249707688
N -2.0527374937 0.1246457140 -0.6409755972
C -2.2917741051 -0.1192892277 -1.8803299754
S -3.9779506245 -0.2392433769 -2.3941198350
C -4.4704165964 -0.2562647673 -0.5941511780
C -3.2722018354 0.3659551118 0.1409140127
H -3.3917258280 1.4506771583 0.2450071564
H -3.1741230099 -0.0556077954 1.1415797043
H -4.5903017612 -1.3023677054 -0.3135096050
N 0.0263694463 -0.4097968376 -2.2422366502
C -1.1338714471 -0.3241717357 -2.8094816667
S -1.5689284844 -0.3778084407 -4.5021535899
C 0.0822810819 -0.6579336817 -5.3110569329
C 1.0394169266 -1.3589368029 -4.3555496808
C 1.2373262451 -0.5826459439 -3.0527247784
H 0.4707320440 0.3251433171 -5.5780121629
H 0.6747553670 -2.3689905446 -4.1379877217
H 2.0069704770 -1.4555130004 -4.8563149426
H 1.6452537317 0.4166082306 -3.2626968615
H 1.9735863080 -1.0915564768 -2.4239109024
C -0.2228219162 -1.4262735088 -6.6299088465
O -0.6135365536 -2.7504272029 -6.3866077628
O -1.3157237001 -0.7393250266 -7.2035663714
C 0.9889074721 -1.4246110520 -7.6352209738
N 1.6038550266 -0.1008555048 -7.6298676484
O 1.9083058648 -2.3788598510 -7.0880055247
C 0.5419752573 -1.8971179453 -9.0270549051
H 0.1983211137 -3.2875621018 -6.4661603377
H -1.8538050404 -1.4057659130 -7.6646842773
H 2.3796878365 -0.0822066471 -8.2921388604
H 0.9230358771 0.5788273588 -7.9719684538
H 2.4772624036 -2.7106607118 -7.8011861658
H 0.0588716698 -2.8788628242 -8.9875213713
H -0.1491855662 -1.1827670105 -9.4808749898
H 1.4173511418 -1.9711708640 -9.6853853514
C -5.8321834187 0.4404473308 -0.4089258898
O -5.7981083500 1.8104823344 -0.7306957319
O -6.6967169185 -0.2737902940 -1.2726811244
C -6.3256261890 0.3806057817 1.0801115754
N -6.0882849569 -0.9674222222 1.5761929643
O -5.4957432794 1.2151448571 1.8814875979
C -7.7889605401 0.8456553372 1.1968844863
H -5.4573834365 1.9014309721 -1.6387981510
H -7.5307456252 0.2227673692 -1.3301825885
H -6.3461393406 -0.9977622954 2.5619266053
H -6.7020411843 -1.6166106361 1.0856598267
H -5.6358403906 2.1225616435 1.5627993398
H -7.9337657687 1.8437130835 0.7682775847
H -8.4766057205 0.1507249303 0.7028768504
H -8.0570562270 0.8856732130 2.2570402970
