127
# extracted from Terachem optimization
Fe 0.0614563845 -0.3527978238 -0.1861161195
N 0.5802656467 1.6890177590 -0.5058805875
C 1.8363615252 2.0447767772 -0.6837112375
S 2.0563407389 3.7372709808 -0.9705625820
C 0.3230026319 3.9614586897 -0.8577434585
C -0.2781283831 2.7639866694 -0.6109125865
H -1.3418574409 2.6313586821 -0.4901872883
O 2.2844836897 -0.2548626218 -0.4527249322
C 2.9246540422 1.0202958691 -0.5561879564
S 3.9413186109 1.4320825844 0.9393982460
C 5.0068335596 -0.0908111755 1.0042417785
C 4.1200356312 -1.3330533791 0.8072512859
C 3.2508824547 -1.3556183272 -0.4428409432
H 5.3459936605 -0.1064571163 2.0432864521
H 3.5898157536 1.0003613709 -1.4252338357
H 2.6404647590 -2.2596909088 -0.4674175008
H 3.8371492965 -1.2857338658 -1.3641135772
H 4.7496920886 -2.2276971066 0.8124923640
H 3.4674468325 -1.4129259666 1.6841979545
C 6.3096075393 0.0236869367 0.1524431981
N 6.0162800639 0.4033606392 -1.2424188193
N 7.1888670657 0.9649240414 0.8353237915
C 7.0526349298 -1.3422463622 0.1189129694
O 7.1362076999 -1.9430819110 1.3851964336
H 6.7322964196 0.0674987852 -1.8875090280
H 5.9737486757 1.4170784337 -1.3389181682
H 8.0505353693 1.1523934247 0.3262421291
H 6.7495831943 1.8444461295 1.0999687752
H 6.5119140726 -2.0360042614 -0.5311400439
H 8.0447967024 -1.1789600961 -0.3315050716
H 7.7552313826 -1.4250608221 1.9265382082
C -0.2776833508 5.3443857426 -1.0698437505
N 0.7812288048 6.3076474379 -0.7451409020
N -0.7162133067 5.4461730938 -2.4627910092
C -1.5670305320 5.5260773747 -0.2203712731
O -2.5949409509 4.6293619564 -0.6253360444
H 0.5564867376 7.2349989906 -1.1019207594
H 0.9189388837 6.3982591501 0.2623501211
H -1.0014396916 6.4043653931 -2.6731914574
H 0.0380446742 5.2136686339 -3.1064739346
H -1.3619051904 5.3380896272 0.8375115029
H -1.8914391018 6.5732826217 -0.3233885136
H -2.5770237879 4.6609793928 -1.6035661188
N 0.0101385582 -2.2901948669 0.6870242780
C -0.1694971513 -2.4173830773 1.9920472384
S -0.3002942325 -4.0573253963 2.5282451449
C -0.1123553372 -4.5990179325 0.8784276408
C 0.0351505016 -3.5200721883 0.0560845527
H 0.1747218196 -3.5774804975 -1.0128287155
O 0.0380661761 -0.0657227491 2.1740540129
C -0.2918998118 -1.2339819684 2.9115957498
S 0.7669213471 -1.4763319682 4.4118798446
C 0.4451714141 0.1613525129 5.2060461256
C 0.6971950377 1.2636545244 4.1655740039
C -0.1425249758 1.1840343129 2.8966790363
H 1.2314908093 0.2372384529 5.9630343735
H -1.3213689068 -1.1326368442 3.2870451633
H 0.1801625815 1.9456746295 2.1873901611
H -1.2102934768 1.3187691178 3.0965364025
H 0.5402494605 2.2474360168 4.6209246551
H 1.7546867478 1.2174342434 3.8855220450
C -0.8924864761 0.2262337204 6.0283517466
N -2.0902513968 -0.0054805453 5.2174841831
N -0.7865335021 -0.6984625370 7.1211745649
C -1.0134302437 1.6804341925 6.6663949689
O 0.1888030647 2.1238411757 7.2128759971
H -2.6446618812 0.8084118684 4.9459870278
H -2.6866160159 -0.7513264682 5.5650785741
H -1.6310758616 -0.8045021750 7.6769005059
H -0.3714179962 -1.6001322728 6.9039919722
H -1.2953493357 2.3935393818 5.8863146104
H -1.8277868927 1.6344162167 7.4023687444
H 0.3506274613 1.6437016139 8.0436035197
C -0.1514133461 -6.0940696884 0.5882127801
N 0.0635816217 -6.7689323709 1.8780233559
N -1.4504536635 -6.4105459730 -0.0005373584
C 0.9088270794 -6.4666441134 -0.4844612378
O 0.6768939707 -5.8005132387 -1.7104899888
H -0.3022393264 -7.7188420785 1.8569208709
H 1.0545726391 -6.8338108557 2.1153009438
H -1.5362005760 -7.4187283569 -0.1402503909
H -2.2135041240 -6.1279285594 0.6123779942
H 1.9092194696 -6.1825961126 -0.1448098458
H 0.8922671083 -7.5614684952 -0.6063208028
H -0.2408331235 -6.0211958714 -1.9542411174
N -2.0407833743 0.0230312887 -0.3174747670
C -2.5399092487 0.1967051484 -1.5250466306
S -3.9977554332 1.1347202110 -1.5518237008
C -3.9292229555 1.2603244878 0.1945193638
C -2.8325668781 0.5965532465 0.6523882218
H -2.5515882278 0.5069539198 1.6883534064
O -0.5842769391 -0.8964594788 -2.2905376450
C -1.8388839631 -0.3663287963 -2.7294722628
S -1.6372491094 0.9356245366 -4.0262301346
C -0.6629717295 -0.0670047829 -5.2589594017
C 0.4782051940 -0.7942966122 -4.5201160739
C 0.0784925481 -1.6677951468 -3.3384438962
H -0.1914041512 0.6993454603 -5.8800517920
H -2.4091652701 -1.1888056961 -3.1758253753
H 0.9641748695 -2.0887163836 -2.8591456484
H -0.5931550690 -2.4835018774 -3.6246161549
H 1.0410999347 -1.4026453750 -5.2346079477
H 1.1730194975 -0.0266690795 -4.1602954080
C -1.5547039268 -0.8989671781 -6.2345005706
N -2.5590822166 -1.6955465123 -5.5022151348
N -2.1314102781 0.0381037825 -7.1906580967
C -0.6832790028 -1.8898414381 -7.0476134062
O 0.4619802477 -1.2872087368 -7.5939461591
H -2.8327634229 -2.5284748198 -6.0246402924
H -3.4043669338 -1.1479221504 -5.3460016338
H -2.7906550852 -0.4006780380 -7.8308547495
H -2.5624179170 0.8597155521 -6.7711217537
H -0.3412087114 -2.6975214413 -6.3946073108
H -1.3194098389 -2.3468814797 -7.8233016820
H 0.1738226944 -0.6539155795 -8.2731079958
C -4.9762841549 2.0670575302 0.9483352756
N -5.4366776728 3.1002916533 0.0179913409
N -6.0426871992 1.1611935598 1.3840184323
C -4.3775432061 2.6438718639 2.2632182442
O -4.0169693936 1.6076471597 3.1748519976
H -6.2755628563 3.5616260094 0.3663984985
H -4.7173481261 3.8144598553 -0.1229343877
H -6.8299534633 1.6978432577 1.7525359330
H -6.4038703393 0.6094086993 0.6075445748
H -3.4829413877 3.2342583230 2.0491823568
H -5.1308739740 3.3114175031 2.7088300567
H -4.7612707894 0.9726822559 3.1020564378
