157
# extracted from Terachem optimization
Fe 0.2246861126 0.1378541044 0.2322363157
O 0.2135397846 2.3140394228 0.2186564879
C 0.1668140337 3.2577970377 1.4521827673
N 1.1993612568 4.1800020553 1.4694120847
C 1.2842575133 5.0752511877 0.2829756086
C 0.8011749364 4.3437762133 -0.9416420903
C 0.3495210893 3.0878761256 -0.9441950604
H 0.6282280713 5.9370534122 0.4736770587
H 2.1024723224 3.8260227137 1.7657474538
H 0.0313935517 2.5458769373 -1.8239853995
H 0.8008730442 4.8749385229 -1.8887310716
H 0.1990949975 2.5633906814 2.2857422684
H -0.8061445448 3.7417788787 1.3444961453
C 2.7041367361 5.6370134612 0.1580018940
C 3.5196300498 5.2578610129 -0.8302143077
C 3.1065527079 6.6404458712 1.2582393449
N 2.0911859334 7.6990665818 1.2815556472
O 3.0504465201 5.9877619631 2.5305071608
C 4.5420438554 7.1553823082 1.1333327576
H 4.5199672016 5.6617963494 -0.9365938019
H 3.2122251862 4.5369117208 -1.5823248503
H 2.3365615423 8.3682950957 2.0120428550
H 2.0859335090 8.2138986010 0.4007909892
H 2.1061103510 5.9385911921 2.7632618638
H 5.2682328665 6.3388432011 1.1880161879
H 4.6917432686 7.7051340112 0.1992677708
H 4.7385844786 7.8312445318 1.9704218031
O 2.4881029088 0.1203524742 0.2316116958
C 3.3557755097 -1.0718303397 0.5991713927
N 4.4458616215 -1.2612296307 -0.2560046644
C 5.3728618707 -0.0984444831 -0.3535296099
C 4.5930507420 1.1866888033 -0.2626122471
C 3.2828572889 1.2459579563 -0.0170419137
H 6.0682402846 -0.1662399258 0.4955485459
H 4.1942622287 -1.6147289376 -1.1749080774
H 2.7036866925 2.1577632596 0.0234011839
H 5.1235237860 2.1266919471 -0.3801308312
H 2.6569558190 -1.9027302180 0.5656545177
H 3.6868009497 -0.8598368122 1.6188074880
C 6.2293425229 -0.2357936180 -1.6137333576
C 6.0495293093 0.5612801958 -2.6703191166
C 7.2763062439 -1.3689473505 -1.5633914115
N 8.0718825850 -1.1754093430 -0.3428451252
O 6.6098164479 -2.6240477905 -1.4311404398
C 8.1146071590 -1.4939369911 -2.8367014118
H 6.6573379778 0.4795901431 -3.5642128345
H 5.2892457406 1.3375090528 -2.6793629660
H 8.7252509386 -1.9551551867 -0.2629861380
H 8.6335079373 -0.3260936140 -0.4125198133
H 6.2047908537 -2.6286328572 -0.5450728845
H 7.4890806874 -1.7004562196 -3.7101674816
H 8.6986886148 -0.5873328387 -3.0214554634
H 8.8045790419 -2.3339731375 -2.7154340581
O 0.2566751842 -2.0269824918 0.2294433547
C 0.2073273382 -2.9510611327 1.4760479295
N -0.6777083662 -4.0072324105 1.3326509047
C -0.4175124835 -4.9068989240 0.1736100754
C 0.1741399122 -4.1180269785 -0.9645402917
C 0.4540431443 -2.8137783053 -0.9163172097
H 0.3122124887 -5.6602220322 0.5047350720
H -1.6605291738 -3.7774624393 1.4373075415
H 0.8834794439 -2.2468452302 -1.7322225878
H 0.4219015720 -4.6491322460 -1.8788432985
H -0.0502846426 -2.2649431291 2.2765726433
H 1.2383980275 -3.3007700404 1.5585945145
C -1.6929185536 -5.6751329187 -0.1785896995
C -2.3818236368 -5.4109936122 -1.2920244340
C -2.1171025178 -6.7350063553 0.8588742348
N -0.9643413776 -7.6138149013 1.0900036842
O -2.3971150270 -6.0846245886 2.1025470367
C -3.4039361596 -7.4777084200 0.4955564318
H -3.2790566958 -5.9580318983 -1.5581125421
H -2.0677869519 -4.6408996271 -1.9910380879
H -1.2232999410 -8.3089913892 1.7909498591
H -0.7287318597 -8.1279421568 0.2407180333
H -1.5326258473 -5.8610633117 2.4909864040
H -4.2509913012 -6.7917561350 0.4018114442
H -3.2924792615 -8.0382222934 -0.4373964549
H -3.6341358520 -8.1813934341 1.3005218537
O -2.0493046614 0.1637534967 0.2162650776
C -2.9134711614 1.3880727361 0.4709747839
N -4.0585384847 1.4540630101 -0.3278345891
C -4.9717327808 0.2826955394 -0.1964280064
C -4.1593836782 -0.9786080165 -0.0564355546
C -2.8345069183 -0.9894677749 0.1029620097
H -5.5672356365 0.4462534959 0.7129684010
H -3.8746878329 1.6744741207 -1.3028722515
H -2.2235301968 -1.8810556709 0.1563620434
H -4.6707416820 -1.9361322629 -0.0742693364
H -2.2279046799 2.2109960163 0.2867266804
H -3.1841190644 1.3141440281 1.5276714693
C -5.9622614911 0.2770833484 -1.3607184791
C -5.8749095939 -0.6187609071 -2.3474924534
C -7.0205580588 1.3990344681 -1.3136767507
N -7.6547315516 1.3514717436 0.0122200178
O -6.3744588733 2.6658867654 -1.4232473628
C -8.0153170806 1.3574014910 -2.4751414287
H -6.5753508671 -0.6346053659 -3.1744856252
H -5.0978374107 -1.3777328883 -2.3666747087
H -8.3184618566 2.1241405810 0.0743692030
H -8.1954780060 0.4923108187 0.1187978923
H -5.8654147350 2.7872736787 -0.6019758821
H -7.5108529069 1.4588678232 -3.4404540640
H -8.5976995296 0.4309224243 -2.4709122204
H -8.7032420430 2.2014174209 -2.3702414103
O 0.2023624533 0.1387036378 2.4408205803
C -1.0424650661 0.1018890818 3.3488290675
N -0.8897029997 -0.6959856302 4.4751175799
C 0.2554238285 -0.3546713121 5.3626941932
C 1.3962380196 0.1794072018 4.5384963792
C 1.3459628112 0.3690026958 3.2182223034
H -0.0870724960 0.4286247725 6.0549062510
H -0.9898790103 -1.6953140527 4.3331288407
H 2.1705744952 0.7352796770 2.6199422528
H 2.3166027495 0.4478378934 5.0485470559
H -1.8276412053 -0.2481460869 2.6832807134
H -1.1786663208 1.1518035233 3.6220352756
C 0.6136369612 -1.5662663191 6.2277144410
C 1.7310269136 -2.2670564076 6.0180923472
C -0.4232128448 -1.9161037803 7.3144898444
N -0.6417637720 -0.7075932081 8.1190440744
O -1.6715654233 -2.2287835958 6.6899441923
C -0.0637297703 -3.1552863942 8.1360115195
H 1.9974984987 -3.1211478046 6.6299269679
H 2.4328912163 -2.0072666008 5.2307015919
H -1.3371259956 -0.9168650669 8.8362163121
H 0.2137740752 -0.4431684962 8.6080179762
H -2.0479436111 -1.3789466138 6.3994639176
H 0.0217562589 -4.0451642176 7.5054455599
H 0.8726625306 -3.0138522185 8.6838209001
H -0.8657064018 -3.3350727785 8.8577026986
O 0.2185504064 0.1333074921 -1.9745723503
C -1.0045617861 -0.1925335839 -2.8295455260
N -1.0751659436 0.5489421950 -4.0113243447
C 0.0986240396 0.3939745221 -4.9160409171
C 1.3568348302 0.2698541677 -4.0983996756
C 1.3732022793 0.1810053811 -2.7670484189
H -0.0616306690 -0.5300455970 -5.4898502086
H -1.3185509892 1.5267676675 -3.8796163421
H 2.2663644671 0.1215503390 -2.1607223852
H 2.3120477792 0.2366023146 -4.6135743790
H -1.8331689100 0.0076803239 -2.1577258586
H -0.9036336407 -1.2600115024 -3.0387159641
C 0.1121861312 1.5333934971 -5.9356023467
C 1.0167857223 2.5141758339 -5.8733001289
C -1.0089448827 1.4696103525 -6.9934988343
N -0.9651658753 0.1324413736 -7.6031450062
O -2.2760532565 1.5930290958 -6.3486715172
C -0.9649049453 2.6127335173 -8.0089393745
H 1.0403725829 3.3220954963 -6.5955223451
H 1.7761566638 2.5442485850 -5.0969353342
H -1.7295203128 0.0644826796 -8.2759228860
H -0.1000589087 0.0081214651 -8.1303975174
H -2.4045274584 0.7731866030 -5.8389435748
H -1.0632118446 3.5873175671 -7.5219311922
H -0.0388613143 2.5957101045 -8.5917158829
H -1.8096073039 2.4981348822 -8.6944873543
