115
# extracted from Terachem optimization
Fe -0.3171152422 -0.0143716621 -0.1137554074
N -0.0061106248 1.9120844523 -0.3204874990
C 1.2713662119 2.2782469194 -0.1365281241
N 1.3743688986 3.6140909809 -0.2724788683
C 0.1251828997 4.1352921452 -0.5406612840
C -0.7305777644 3.0540959375 -0.5719636623
H -1.7959745349 3.0346676246 -0.7407830567
H 2.1741194360 4.2392300932 -0.1409327791
N 1.7162635390 0.0021377848 0.0592804388
C 2.2514820954 1.2524769590 0.1624030819
C 3.5645231029 1.4593066099 0.5739673504
C 4.3758230417 0.3623935504 0.8910688525
C 3.8279616218 -0.9187915732 0.7164989626
C 2.5082125605 -1.0562426150 0.3090909204
H 3.9465287696 2.4691163057 0.6839371753
H 2.0557129864 -2.0326209545 0.1834586040
H 4.4218082347 -1.8009959036 0.9243861688
C 5.7568180380 0.5300351404 1.4493524188
C 5.8048734692 0.3115971838 2.9951678488
O 4.8656825374 1.2683319523 3.5888414258
O 5.3654538007 -0.9740273930 3.3215715066
N 7.1416241158 0.4500159744 3.4317613247
H 6.4335885687 -0.2117858124 1.0173091170
H 6.1503505932 1.5254634321 1.2211694771
H 5.3768527396 1.7844479288 4.2348701274
H 4.5335949478 -0.9057129035 3.8316737434
H 7.6022381448 1.3330090615 3.2468905622
H 7.3262289621 0.0735429050 4.3540689297
C -0.0915987754 5.6037167117 -0.7523959754
C 0.7473008774 6.4923987289 0.1993828410
O 0.3911540599 6.1156659387 1.5003178672
O 2.1099928116 6.1788736773 -0.1073975344
N 0.6031772160 7.9114019691 0.0684403121
H 0.1703087239 5.8742950071 -1.7821528137
H -1.1498838570 5.8317315212 -0.6028993773
H 0.7239827818 6.8080066441 2.1004810633
H 2.6605768046 6.8758841898 0.2947158441
H -0.3287382380 8.2340319293 0.3167745767
H 0.8489074045 8.2527570158 -0.8575911913
N -0.5242135724 -1.9464370011 0.1695583692
C -0.3955192878 -2.3101004219 1.4545328736
N -0.5421554992 -3.6445749314 1.5563087466
C -0.7633647068 -4.1693217875 0.2986551035
C -0.7545754359 -3.0907789911 -0.5599411712
H -0.8862236881 -3.0744343663 -1.6303598469
H -0.4381884528 -4.2678883584 2.3614831994
N -0.2234965441 -0.0344525652 1.9109442295
C -0.1415599097 -1.2841645491 2.4475177599
C 0.2113624455 -1.4924378076 3.7770698393
C 0.4909452224 -0.3958582130 4.6024840929
C 0.3358519446 0.8850740840 4.0493520920
C -0.0148959132 1.0233006986 2.7130327480
H 0.3071420326 -2.5023812906 4.1625218304
H -0.1243108688 1.9998017446 2.2571324898
H 0.5142802205 1.7676026383 4.6522311136
C 0.9932122593 -0.5652904213 6.0045150124
C 2.5363775530 -0.3540404202 6.1094877941
O 3.1630701120 -1.3054912612 5.1860444730
O 2.8777777059 0.9340103239 5.6874313156
N 2.9262299428 -0.5024767993 7.4598797901
H 0.5397663794 0.1788844583 6.6643736804
H 0.7445149687 -1.5594337883 6.3888148948
H 3.7836827764 -1.8312820636 5.7183602085
H 3.4451000323 0.8692313386 4.8931232919
H 2.7244233667 -1.3891338162 7.9063018402
H 3.8433953780 -0.1310189118 7.6774267027
C -0.9763637303 -5.6372022794 0.0806373417
C -0.0441193945 -6.5271779358 0.9402913763
O 1.2641596396 -6.1559011599 0.6065475739
O -0.3755381230 -6.2079060884 2.2959059588
N -0.1776272262 -7.9458310148 0.7981497840
H -2.0120967911 -5.9031572807 0.3230336196
H -0.8070479367 -5.8690966744 -0.9737676114
H 1.8559547203 -6.8506293537 0.9492731351
H 0.0154833090 -6.9032159578 2.8564955630
H 0.0845546525 -8.2728411912 -0.1284316882
H -1.1081432801 -8.2840623028 1.0309113243
N -2.2466927448 0.1952574201 -0.2708511750
C -2.6767631773 0.1093071239 -1.5368563834
N -4.0178464043 0.2366750841 -1.5580553364
C -4.4706308225 0.4256802008 -0.2678307415
C -3.3457095421 0.3902716017 0.5305329168
H -3.2668306424 0.4953193885 1.6013641340
H -4.6681550342 0.3068725954 -2.3451556361
N -0.4379332504 -0.2046064192 -2.0932766151
C -1.7061784984 -0.1173888592 -2.5872400695
C -1.9757187345 -0.2422142574 -3.9461272024
C -0.9269407638 -0.4637281613 -4.8487000790
C 0.3729201475 -0.5364652579 -4.3200609663
C 0.5765469235 -0.4010504890 -2.9547041703
H -2.9942729896 -0.1571305647 -4.3104342147
H 1.5663557324 -0.4511073490 -2.5177332699
H 1.2229647893 -0.6778878852 -4.9773098592
C -1.1792832780 -0.5799446907 -6.3256531479
C -0.9603652726 0.7747971994 -7.0650396605
O -1.8818851009 1.6665579798 -6.4825295838
O 0.3817503437 1.1190446305 -6.8225740544
N -1.1741838677 0.7677347064 -8.4844075753
H -0.4966186908 -1.3104846679 -6.7682434074
H -2.2067300895 -0.9019890404 -6.5139032095
H -1.9170234558 2.4505699267 -7.0598723651
H 0.6175588947 1.8146706885 -7.4625855285
H -2.1327592101 0.5425391370 -8.7383213409
H -0.5355336712 0.1482071499 -8.9770212889
C -5.9282347600 0.5908300929 0.0408712099
C -6.6797081710 1.4783004453 -0.9831434956
O -6.0350671605 2.7206731298 -0.9696011859
O -6.5377552199 0.8003223712 -2.2358606121
N -8.0823405843 1.6779008574 -0.7702467924
H -6.4173024919 -0.3905501741 0.0551302330
H -6.0367351095 1.0344325173 1.0336171840
H -6.6219223629 3.3526726841 -1.4239978207
H -7.1737514506 1.2060479942 -2.8534895552
H -8.2782761285 2.1946212455 0.0835291052
H -8.6119176761 0.8096188567 -0.7744213989
