145
# extracted from Terachem optimization
Fe -0.3024926520 -0.4633421790 -0.1226493393
N 0.1886312767 1.5406504978 -0.3406245989
C 1.3873583395 1.9915238342 -0.4637342451
O 1.5508399611 3.2960655546 -0.6083324827
C 0.2180745139 3.9257749597 -0.4234798458
C -0.7278650048 2.7022568930 -0.3773667331
H -1.3401258946 2.7247032302 0.5220958919
H -1.3836842161 2.6347163058 -1.2487542342
H 0.0553396151 4.5600985770 -1.2941467002
O 2.1547672281 -0.1979268654 -0.1819135270
C 2.6125446079 1.1153213544 -0.5107925218
C 3.7146546822 1.6286377320 0.3846327047
C 4.3663421666 0.8587675738 1.2630669459
C 3.9908394471 -0.6021718793 1.3939704785
C 3.2424814155 -1.0948672385 0.1640294651
H 3.9477633997 2.6829857800 0.2923447743
H 2.9636364940 1.1235867577 -1.5603799002
H 2.7832536839 -2.0679525017 0.3384806235
H 3.9191630256 -1.1659665624 -0.6986256113
H 4.8926018749 -1.2109552142 1.5072775372
H 3.3733161228 -0.7578689138 2.2892865105
C 5.4860706449 1.4613540322 2.1285478673
O 5.4314725398 2.8831664170 2.0907865093
C 5.3329860658 1.0684579941 3.6023526024
C 6.9075332249 1.0914302498 1.5814796721
N 7.1361549199 -0.3387878433 1.4494988666
O 7.0959443019 1.7060405875 0.3194759522
H 5.9853432992 3.1546416717 1.3340063010
H 5.3086727998 -0.0155299914 3.7530142550
H 6.1616139380 1.4869605570 4.1815571587
H 4.4038223486 1.4921788444 3.9963081702
H 7.6257958446 1.6058040187 2.2365642675
H 8.0718406395 -0.4734731185 1.0656381611
H 7.1380489207 -0.7852713980 2.3662254467
H 6.5534498276 1.2044849222 -0.3159559262
C 0.2440620954 4.7925809965 0.8424392602
O 0.3530297755 3.8757353204 1.9355521966
C 1.4499135488 5.7450031316 0.8395914899
C -1.0894565209 5.6049609034 0.9975561585
N -1.3292977652 6.4397202663 -0.1697282064
O -2.2235592635 4.8002765253 1.2203160211
H 0.2851638616 4.3821960080 2.7614673564
H 1.5230060643 6.3270535826 -0.0856683710
H 1.3807784927 6.4487174119 1.6779154005
H 2.3738910074 5.1740978860 0.9539456085
H -0.9643924324 6.1732043873 1.9383498757
H -2.1575783344 7.0096650836 -0.0008698307
H -0.5607413799 7.0872801073 -0.3340200146
H -2.6673347807 4.6188166589 0.3683102129
N -0.1197878702 -2.4616728008 0.4720762386
C -0.4311668618 -2.7867671292 1.6763160711
O -0.4133097769 -4.0683464445 2.0054798082
C 0.1348054628 -4.8070303473 0.8451272048
C 0.1946340417 -3.7090255417 -0.2535847148
H 1.1798330873 -3.6467096450 -0.7103972628
H -0.5498902602 -3.8672050447 -1.0402866053
H -0.5834580605 -5.5973496876 0.6233471047
O -0.6231719611 -0.5043355490 2.1144014718
C -0.8478830146 -1.7830432606 2.7210166358
C -0.1123279822 -1.9824690870 4.0217441000
C 0.5377517095 -1.0036735091 4.6611855711
C 0.5437845740 0.3945453407 4.0755349638
C -0.5954601529 0.5807673920 3.0847951069
H -0.1169510045 -2.9928756650 4.4143314452
H -1.9331123012 -1.9186118532 2.8826108496
H -0.4802017342 1.4930445602 2.4983885044
H -1.5653922609 0.6008501434 3.5981907866
H 0.4233775488 1.1329606736 4.8742941756
H 1.5024002676 0.5985845505 3.5796676034
C 1.2852231917 -1.3135073029 5.9703740969
O 1.3787906770 -2.7207304001 6.1597700152
C 2.7239601967 -0.7876381343 5.9246649219
C 0.5248992349 -0.7791434654 7.2317015934
N 0.2454053436 0.6474558714 7.1938233299
O -0.6949846368 -1.4836792190 7.3794521515
H 0.5720130795 -2.9775872925 6.6460724970
H 2.7701740020 0.2853090188 5.7136577100
H 3.2193869187 -0.9821187709 6.8808301006
H 3.2811257132 -1.3167317725 5.1452231437
H 1.1220008970 -1.0989438278 8.0981300116
H -0.2609043288 0.8915793062 8.0452699911
H 1.1144244715 1.1803831969 7.2164197393
H -1.2983195049 -1.1410537049 6.6952801642
C 1.4764907730 -5.4456585369 1.2337855065
O 2.4350958774 -4.3817820373 1.2230197320
C 1.4226028085 -6.0756716959 2.6346060723
C 1.8923837684 -6.5045896242 0.1628125717
N 0.9750395052 -7.6297098038 0.1413044313
O 1.9334666989 -5.9611865569 -1.1473621489
H 3.2886194002 -4.7396105467 1.5170834080
H 0.5540286443 -6.7282836203 2.7709477883
H 2.3275133913 -6.6684985248 2.8169160332
H 1.3731507274 -5.2904492265 3.3922544158
H 2.9370953872 -6.7737177409 0.3990412096
H 1.3578784822 -8.3692006073 -0.4468248107
H 0.8327066807 -8.0346436187 1.0634405564
H 1.1097273182 -6.2546989767 -1.5758123747
N -2.3269833408 -0.2400766274 -0.7450733436
C -2.6614374804 -0.6412693927 -1.9168311416
O -3.9261325599 -0.4748957190 -2.3004824066
C -4.5182785374 0.4877391569 -1.3470529286
C -3.5256944080 0.3995472440 -0.1609388976
H -3.2647497706 1.3786484386 0.2326526749
H -3.9198878974 -0.2219533340 0.6506826409
H -5.5057354408 0.1055500536 -1.0904234971
O -0.3994269453 -1.1640017462 -2.3489225806
C -1.6979027888 -1.1766768605 -2.9534527167
C -1.8094917378 -0.2364106993 -4.1277364168
C -0.8098486448 0.5421165587 -4.5535321716
C 0.5930561963 0.2893714720 -4.0500514925
C 0.6704310145 -1.0483743675 -3.3224705159
H -2.8178627513 -0.0969736667 -4.4923422264
H -1.9734599508 -2.2098566106 -3.2188646217
H 1.5879359372 -1.1505473082 -2.7407944890
H 0.5949778355 -1.8867930031 -4.0251969326
H 1.2866015033 0.2670782115 -4.8988580527
H 0.9155814030 1.0983294523 -3.3819315636
C -1.1163491166 1.7033594372 -5.5118395018
O -2.5061082995 2.0555586626 -5.4043186949
C -0.3298577676 2.9659258646 -5.1436009787
C -0.9047749451 1.3113108303 -7.0097953967
N 0.4256394665 0.7881669635 -7.2666207639
O -1.8664073865 0.3395011453 -7.3759025451
H -2.9693058347 1.5251958786 -6.0828599713
H 0.7527287849 2.8092232097 -5.1745083507
H -0.5886133895 3.7707593489 -5.8376341029
H -0.6006305533 3.2957443362 -4.1351043735
H -1.1746003486 2.1940858607 -7.6080873325
H 0.4734676185 0.5045644251 -8.2454545259
H 1.1287239807 1.5167053904 -7.1483333398
H -1.5730700739 -0.5030888252 -6.9824576394
C -4.6272086537 1.8412526185 -2.1055200775
O -3.3190175089 2.2303554240 -2.5190564526
C -5.5488941085 1.6765673518 -3.3256065567
C -5.1675596283 3.0031767665 -1.2143839789
N -6.3985705737 2.6381159636 -0.5366750794
O -4.2380991097 3.4094890201 -0.2070669020
H -3.2303616752 2.1800641640 -3.4925626947
H -6.5509685849 1.3303144139 -3.0522185936
H -5.6489362829 2.6313187217 -3.8523995446
H -5.1375559885 0.9407937212 -4.0217918993
H -5.2507900028 3.8686892471 -1.8882630592
H -6.8624643187 3.4745755072 -0.1842309577
H -7.0624126692 2.1834125293 -1.1586162860
H -4.6154394439 3.1074675350 0.6378791796
