139
# extracted from Terachem optimization
Fe 0.3725543317 0.1659482578 -0.0675989288
O 0.4163712073 2.3411556198 0.0094161116
C 1.5208829767 2.8537800508 -0.8136014339
C 1.5357972199 4.3816713177 -0.9395365563
C 1.2282438205 5.1478537620 0.3612009826
C 0.0261453539 4.5030897446 1.0141005024
C -0.3079956282 3.2321208814 0.8129907960
H 2.0836539770 5.0385293138 1.0408111538
H 0.7789453973 4.6460271145 -1.6832179719
H 2.5088811115 4.6758224812 -1.3475188122
H -1.1871549434 2.7421251089 1.2120326634
H -0.6117751718 5.0995665987 1.6570205475
H 1.3026127526 2.4335155616 -1.8005626159
O 2.4800068642 0.7535448929 -0.2167216484
C 2.8056255820 2.1843825986 -0.3263191953
C 3.4379882924 2.6548161767 0.9767851694
C 4.7593014178 1.8876542332 1.2464429897
C 4.4162731110 0.3854569587 1.2641580892
C 3.6760860191 -0.0576203016 0.0071815725
H 5.0868306180 2.1718796572 2.2559271390
H 3.6335944820 3.7236001166 0.9154677088
H 2.7416109836 2.4802126334 1.8069580031
H 3.5405492477 2.2860272402 -1.1357125279
H 3.3150380319 -1.0822093060 0.0967014419
H 4.2993732931 0.0283143775 -0.8885407717
H 5.3063180060 -0.2389125537 1.3909582186
H 3.7740177262 0.1881637446 2.1304913207
C 5.9105519223 2.2720605115 0.3045248982
C 6.7312059574 1.3863674853 -0.2764160081
C 6.2161564798 3.7235202675 0.1163659034
C 7.3502162489 4.2993983376 0.5271498251
O 5.2053580953 4.4068355009 -0.5407219318
H 7.5587519275 1.7215556564 -0.8927819983
H 6.6369708715 0.3119608503 -0.1520371423
H 7.5553426450 5.3541207443 0.3587061972
H 8.1058053288 3.7252449383 1.0479047203
H 5.4824207670 5.3330206657 -0.6476481610
C 1.0284696634 6.6503838991 0.1620335250
C 0.9179356798 7.2345442245 -1.0401042920
C 0.9694401244 7.4839248552 1.3898700638
C 1.2251092650 7.0522734756 2.6388589461
O 0.6295679497 8.7754414132 1.1083303115
H 0.7814909335 8.3057672401 -1.1209329726
H 0.9665894013 6.6833683400 -1.9721142388
H 1.1736017582 7.7260255681 3.4893758292
H 1.5079526900 6.0308882360 2.8536226108
H 0.6522623656 9.3016472510 1.9238334160
O 0.4375745794 -2.0851293282 -0.0232868073
C -0.5357098554 -2.5319565495 0.9757212900
C -0.7119068721 -4.0540769087 1.0007533870
C 0.6003040010 -4.8575049881 1.0275078447
C 1.5570747391 -4.2354111594 0.0364868747
C 1.4344505414 -2.9891869118 -0.4113737572
H 1.0410476989 -4.7656531001 2.0270830191
H -1.2644664934 -4.3113268551 0.0929665213
H -1.3495787521 -4.3140448605 1.8522330069
H 2.0815550549 -2.5403808713 -1.1521919551
H 2.3732120425 -4.8329255000 -0.3553917923
H -1.4684330680 -2.0972750359 0.6097914137
O 0.0702706358 -0.4266414992 1.9294908686
C -0.2190421009 -1.8258046816 2.3000445980
C 0.8983285475 -2.3425214116 3.1978508368
C 0.9988530081 -1.4927839622 4.4933043462
C 1.2079819983 -0.0255656671 4.0729023679
C 0.1385564939 0.4505975612 3.0974197895
H 1.9064930391 -1.8266513561 5.0149385593
H 0.6896314853 -3.3791316550 3.4561464195
H 1.8546149089 -2.3047145347 2.6620620635
H -1.1517821936 -1.8107155690 2.8776305974
H 0.3623015054 1.4420798394 2.7022785514
H -0.8559570176 0.4657666408 3.5548694851
H 1.2325654138 0.6494263657 4.9341879323
H 2.1866781042 0.0594946093 3.5859853897
C -0.1572879197 -1.7160721990 5.4808566388
C -0.7647165252 -0.7355241047 6.1619174680
C -0.5516309426 -3.1236541436 5.7940151254
C -0.3411394328 -3.7063635864 6.9778639168
O -1.1713618464 -3.7540539577 4.7265594101
H -1.5367273993 -0.9652264297 6.8887828650
H -0.5144503836 0.3151451434 6.0505855102
H -0.6538781725 -4.7276373978 7.1832589048
H 0.1537286982 -3.1701052316 7.7775946008
H -1.4308083798 -4.6478859921 5.0093361042
C 0.4198045537 -6.3562775876 0.7780689586
C -0.7108906735 -6.9013127032 0.3059160601
C 1.5773379253 -7.2298073386 1.0972131747
C 2.7219808668 -6.8276422075 1.6801287146
O 1.3483580563 -8.5258847619 0.7363450895
H -0.7840599507 -7.9704509348 0.1503992398
H -1.5925500694 -6.3179069485 0.0673694568
H 3.5227315995 -7.5302480125 1.8925471392
H 2.8947377566 -5.8023246129 1.9768537974
H 2.1076768871 -9.0725986097 0.9948475396
O -1.8615029006 0.1271769852 -0.3744908855
C -2.2737151395 0.3886045077 -1.7562670883
C -2.5088433537 1.8891727816 -1.9206468469
C -3.6472489331 2.3839343192 -0.9973055514
C -3.6018409560 1.6334031605 0.3180229377
C -2.7618330006 0.6326268741 0.5737824569
H -3.4306539273 3.4377712786 -0.7770582687
H -2.7409051103 2.1313154315 -2.9599858199
H -1.5817542245 2.4109954035 -1.6637918625
H -2.7095047845 0.0839826889 1.5063359434
H -4.3083045081 1.9164848366 1.0915701557
H -3.2132014130 -0.1561402620 -1.9010081557
O 0.1034807407 0.1347972292 -2.2182884530
C -1.2373106869 -0.2885200084 -2.6446224335
C -1.4427596936 0.0007647942 -4.1305414639
C -0.3925382282 -0.7190384924 -5.0061098836
C 0.9843537567 -0.2453969614 -4.4969028814
C 1.1477964279 -0.5213740669 -3.0078716993
H -0.5260229105 -0.3362274177 -6.0273303289
H -2.4578766168 -0.2933898662 -4.4033801644
H -1.3448765303 1.0781125907 -4.3024725989
H -1.2882520737 -1.3667373295 -2.4605760503
H 2.0891634604 -0.1339566275 -2.6144727064
H 1.0797232332 -1.5942035265 -2.8059424297
H 1.8117245035 -0.7212567220 -5.0321616209
H 1.0774218456 0.8325205156 -4.6764218468
C -0.5579657055 -2.2443213247 -5.1006568437
C 0.4706377028 -3.0986745801 -5.1868440847
C -1.9374969806 -2.8024644478 -5.2391530921
C -2.3809362937 -3.4217513180 -6.3373871033
O -2.7059482713 -2.6175977354 -4.1004424303
H 0.2972656781 -4.1621152219 -5.3144927895
H 1.5099430159 -2.7844645983 -5.1636898152
H -3.3859055865 -3.8327248233 -6.4019598609
H -1.7458678413 -3.5275536013 -7.2075809344
H -3.5842462335 -3.0033368368 -4.2608060159
C -5.0591988582 2.3316183129 -1.5923092840
C -5.3695857229 1.6425148994 -2.6996923614
C -6.1229779010 3.0779289062 -0.8730790491
C -5.9170667900 4.0041267375 0.0806203046
O -7.3688854263 2.7232940723 -1.3056193657
H -6.3840533176 1.6301099886 -3.0781963938
H -4.6345160630 1.0848656629 -3.2703006028
H -6.7478908070 4.5199417118 0.5533114064
H -4.9268894758 4.3085284132 0.3919759324
H -8.0307587028 3.3014570947 -0.8926590969
