145
# extracted from Terachem optimization
Fe -0.1134072359 -0.1293434114 -0.0295047878
O 0.0904282103 2.1512577719 -0.0281513645
C -0.9613839716 3.1012184817 0.3107479932
C -0.2261426671 4.3503484147 0.6798232235
C 1.0816277510 4.2309929182 0.4339485552
C 1.3599775827 2.8640710920 -0.1381010455
H 1.6641976807 2.9059795269 -1.1929198132
H 2.1205355953 2.3044494755 0.4072683251
H -0.7120749768 5.2367892398 1.0682832587
H -1.5577405566 2.6824932236 1.1277986204
H -1.6231643776 3.2332444033 -0.5588220103
C 2.2030143350 5.2424500342 0.5632788774
N 3.4964345861 4.5412087174 0.5334514723
C 2.0667244220 6.1989804606 1.7936042883
N 0.8618904735 6.9930480143 1.6564732348
N 2.1027552805 5.4087776647 3.0163113930
O 3.1826002965 7.0821268155 1.8236046106
H 2.1777371010 5.8869425900 -0.3260397730
H 4.2240708077 5.2155916708 0.3033290741
H 3.7080881996 4.1992266009 1.4733575452
H 0.8090070222 7.6392548705 2.4450156802
H 0.9399718286 7.5814009946 0.8252205338
H 2.1112097239 6.0446283458 3.8140152332
H 1.2690162397 4.8267704637 3.0970828301
H 3.9353717505 6.5899294993 2.1920739717
O 1.9878728694 -0.3202258771 -0.0228441522
C 2.8288916283 -0.1839635797 -1.2157142770
C 4.1874015394 0.1106861894 -0.6667946330
C 4.2103807344 0.0059160233 0.6652269338
C 2.8436801402 -0.3793442396 1.1673192481
H 2.8187718130 -1.3995122712 1.5709249202
H 2.4242378539 0.2892658657 1.9179340167
H 5.0428395058 0.3383384510 -1.2911653946
H 2.4026713932 0.6068141860 -1.8383124481
H 2.7879453591 -1.1248337028 -1.7809983005
C 5.3615013159 0.1088339002 1.6466780180
N 4.8285062393 0.3308641265 2.9995502317
C 6.4650439804 1.1475141913 1.2548194969
N 7.0702381816 0.7556870451 -0.0010364933
N 5.8812991874 2.4809097939 1.2256512676
O 7.4691039424 1.1467061271 2.2647192427
H 5.8642909680 -0.8680268207 1.6693305190
H 5.5618141063 0.1084411281 3.6706037965
H 4.6335180931 1.3277963523 3.1131814883
H 7.8164075130 1.4158036334 -0.2239770173
H 7.5301115703 -0.1489186856 0.1140182656
H 6.6268788807 3.1587465852 1.0659145947
H 5.2162473816 2.5736122111 0.4583619412
H 7.1461282459 1.6952501575 2.9993734872
O -0.2561662829 -2.3921800245 -0.0319026908
C 0.8033706284 -3.3332140055 -0.3755446787
C 0.1126753026 -4.6589218520 -0.4511367486
C -1.1690030529 -4.5597808768 -0.0869976715
C -1.4833653139 -3.1288766646 0.2679946174
H -2.3039171117 -2.7005817780 -0.3145529108
H -1.7268150096 -2.9986498198 1.3280064600
H 0.6070757512 -5.5730638475 -0.7576988033
H 1.5835520840 -3.2980670747 0.3990420958
H 1.2567502761 -3.0182336154 -1.3228360100
C -2.2681263081 -5.6025285527 -0.0162946424
N -3.3342701513 -5.0977557918 0.8598272314
C -1.7797645704 -7.0325868107 0.3930301798
N -0.8578315929 -7.5373673654 -0.6056457457
N -1.2053678295 -6.9625397162 1.7280934022
O -2.8986016965 -7.9075165467 0.4559899364
H -2.7046738963 -5.7034211813 -1.0196877186
H -4.1934828392 -5.6091263896 0.6696198500
H -3.0762259148 -5.3084536963 1.8263406196
H -0.5672758739 -8.4768064036 -0.3307671651
H -1.3525782833 -7.6529960742 -1.4917234044
H -1.0310488360 -7.9074026571 2.0694495985
H -0.3112685872 -6.4764668368 1.6994584865
H -3.3744621230 -7.7235396185 1.2837442525
O -2.2053094969 0.0780413064 -0.0474532865
C -3.0679352937 0.0581117534 1.1390706790
C -4.4188014413 -0.2908245432 0.6020081875
C -4.4120307785 -0.3682414419 -0.7312866395
C -3.0340220646 -0.0634101588 -1.2552716835
H -2.6110408944 -0.8540547081 -1.8761348164
H -2.9840964583 0.8735559334 -1.8174604487
H -5.2809119596 -0.4591620670 1.2357716869
H -3.0260267148 1.0462700640 1.6166901488
H -2.6577274016 -0.6743225261 1.8404464604
C -5.4997561094 -0.7490664391 -1.7180416662
N -5.0612885659 -0.3555779785 -3.0645294521
C -6.9268650374 -0.2096098071 -1.3673758705
N -7.3573258778 -0.7662487936 -0.1007752730
N -6.8894729251 1.2442306408 -1.3772588336
O -7.8358755210 -0.6261294112 -2.3776117120
H -5.5793283125 -1.8448653285 -1.7178251228
H -5.5791509427 -0.8891742522 -3.7594765000
H -5.3050240236 0.6272461065 -3.2043215828
H -8.2958629635 -0.4205789377 0.1044666828
H -7.4509932819 -1.7789727786 -0.1937305015
H -7.8418281513 1.6060662694 -1.3346478396
H -6.3951667514 1.5840131019 -0.5545038004
H -7.6785490266 -0.0757797713 -3.1636117412
O -0.1360143699 -0.1250501442 2.1609067634
C 0.0796580118 -1.3044626672 2.9969483446
C 0.6018234855 -0.7510491458 4.2843793975
C 0.5283543588 0.5832564323 4.3017561602
C -0.0506180894 1.0732337909 2.9994039811
H -1.0579900385 1.4915512941 3.1300517569
H 0.5540720987 1.8127649398 2.4742264722
H 0.9305983952 -1.3691745778 5.1108234731
H 0.7643258396 -1.9725928509 2.4667070769
H -0.8762981141 -1.8331926547 3.1268976182
C 0.7956435901 1.5744925261 5.4160869496
N 1.0429493353 2.9054641475 4.8387997615
C 1.9047966785 1.1530524081 6.4388837361
N 1.5316891612 -0.0933319872 7.0758688611
N 3.1878270462 1.0942928957 5.7549157916
O 1.9971024296 2.1644872310 7.4367340999
H -0.1307558115 1.6605508296 6.0013263704
H 0.9067760356 3.5995605984 5.5718722565
H 2.0284809338 2.9623021462 4.5723777262
H 2.2316810906 -0.3176826788 7.7845340693
H 0.6576429494 0.0378449154 7.5877475265
H 3.9183457679 0.9020762195 6.4405404442
H 3.2034768713 0.3397965575 5.0689349572
H 2.5519680958 2.8774708201 7.0783881557
O -0.0900146880 -0.0778781121 -2.2194518941
C -0.3048974655 1.1373343475 -3.0093901432
C -0.7889493581 0.6314452571 -4.3294402465
C -0.7056392013 -0.6998361197 -4.4049573941
C -0.1428702358 -1.2314717999 -3.1090547685
H -0.7532312764 -1.9994053379 -2.6201927529
H 0.8729934432 -1.6317573530 -3.2292367806
H -1.1369641729 1.2785018741 -5.1252473388
H 0.6438663453 1.6890975300 -3.0796110242
H -1.0190952124 1.7671182047 -2.4718238287
C -1.0876401958 -1.6533872542 -5.5266231921
N -0.4417446526 -2.9678710201 -5.4627142947
C -0.7813180367 -1.1195045726 -6.9666871180
N -1.5237325205 0.1009622847 -7.2280158538
N 0.6651841344 -0.9117200535 -7.0730826808
O -1.1624863500 -2.1148207756 -7.8854571318
H -2.1714213686 -1.8267943920 -5.4738929033
H 0.5693221380 -2.8630284258 -5.5182485952
H -0.7041036397 -3.5188982314 -4.6517649780
H -1.2761212518 0.4202198022 -8.1656640148
H -2.5177826920 -0.1302492310 -7.2739248478
H 0.9311393217 -1.0448811139 -8.0469601971
H 0.9094626395 0.0392691614 -6.8038273556
H -0.9105932104 -2.9651791404 -7.4681798158
