139
# extracted from Terachem optimization
Fe 0.0281149061 -0.0520823716 0.0190289823
N 0.3322932768 1.9036449548 -0.1828548394
C 1.5724795363 2.2510022914 -0.1832276678
C 1.8297779450 3.7098327826 -0.4255365776
C 0.3955778924 4.3019433333 -0.2517105998
C -0.5344990918 3.0798778459 -0.4145007906
H -1.3708035496 3.0701068162 0.2856350130
H -0.9424245661 3.0031602925 -1.4292642978
H 0.2151517149 5.0734953772 -0.9992536425
H 2.2162700330 3.8599682823 -1.4427391861
H 2.5630056613 4.1509985770 0.2578518836
N 1.9719952639 -0.0500419148 0.1405643649
C 2.5270276956 1.1481409538 -0.0007095070
N 3.8397648699 1.3639840595 0.0487029430
C 4.8356804491 0.2838095853 -0.0591236812
C 4.1757100688 -0.9995770740 0.3796136445
C 2.8406309598 -1.1279920113 0.4152136090
H 5.6956345018 0.5160295263 0.5729543245
H 4.1690289434 2.3137509750 -0.0823562228
H 2.3703143794 -2.0744212406 0.6443361273
H 4.8238132552 -1.8391413758 0.5972415013
C 5.2878321699 0.1522067260 -1.5524106252
O 4.5425419986 0.5520613417 -2.4234534084
C 6.6600407914 -0.4683990529 -1.8187407041
O 6.9679321720 -1.1760251820 -0.6133687235
C 6.6009148970 -1.4132805703 -3.0245175565
C 7.6530356106 0.6903082361 -2.0476783217
H 7.8797915477 -1.5055486623 -0.6700305502
H 6.2511741987 -0.8859705933 -3.9157540658
H 7.5998753908 -1.8120993952 -3.2299817077
H 5.9299270933 -2.2533693577 -2.8207064953
H 7.3803092477 1.2723801082 -2.9324759845
H 7.6994729290 1.3555229641 -1.1788744343
H 8.6559332909 0.2788442733 -2.2092983809
C 0.2956557460 4.9046702754 1.1615218678
O -0.0943986234 4.2247704730 2.0942057514
C 0.7123475798 6.3704990191 1.3346468221
O 1.5766355499 6.6357375390 0.2231919182
C -0.5702343349 7.2252539879 1.2436756253
C 1.4353517778 6.5818522059 2.6691682725
H 1.8040630409 7.5801371621 0.2303037853
H -1.2628341918 6.9848738574 2.0554202452
H -0.3039955814 8.2851439527 1.3282156231
H -1.0788537635 7.0801972556 0.2848964968
H 0.8092957233 6.2676163605 3.5076476912
H 2.3718719149 6.0157041983 2.6971584810
H 1.6745071713 7.6428528018 2.7971219168
N -0.2112624895 -2.0158553204 0.2669116146
C -0.4367843059 -2.3713959836 1.4832754270
C -0.6591488148 -3.8402416350 1.6914220991
C -0.2316370554 -4.4215175101 0.3041646790
C -0.1781758837 -3.1887637027 -0.6311445781
H 0.7457618122 -3.1517056941 -1.2141758729
H -1.0192282079 -3.1387277620 -1.3299503627
H -0.9579173408 -5.1633101159 -0.0263587562
H -1.7154423099 -4.0423921928 1.9122379667
H -0.0829460505 -4.2539250810 2.5260562131
N -0.2159491546 -0.0683175351 1.9603989858
C -0.4664083180 -1.2715628241 2.4612467124
N -0.6821520187 -1.4993065353 3.7562061113
C -1.0425410024 -0.4263979597 4.6974153346
C -0.4621373478 0.8641950432 4.1685097401
C -0.1322856411 1.0028566887 2.8749026918
H -0.6430936310 -0.6615925295 5.6863070530
H -0.8624648517 -2.4529510832 4.0490330964
H 0.1987550213 1.9494292898 2.4682354182
H -0.3897560074 1.6966314214 4.8571954484
C -2.5990261893 -0.3103634348 4.7623948780
O -3.2592077988 -0.7737766669 3.8538526153
C -3.2098035142 0.3872278699 5.9791466948
O -2.1045377445 1.0284805490 6.6231866863
C -4.2637705158 1.4089694038 5.5298083628
C -3.8184147961 -0.7011390631 6.8862473439
H -2.4064339482 1.3926544937 7.4713932338
H -5.0439599446 0.9254530491 4.9359903905
H -4.7333307789 1.8664086177 6.4071219710
H -3.7987253387 2.2030820920 4.9372711868
H -4.6130119445 -1.2450470553 6.3681162274
H -3.0554789676 -1.4111995523 7.2218200173
H -4.2535700098 -0.2282410729 7.7739938891
C 1.1569114720 -5.0709103290 0.4582303001
O 2.1642332627 -4.4185575853 0.2491859697
C 1.2021406568 -6.5431460436 0.8849374720
O -0.0024805315 -6.7328185328 1.6394446927
C 1.1757524069 -7.3968981517 -0.4014695789
C 2.4446775734 -6.8363300802 1.7299380146
H -0.0813099482 -7.6763033247 1.8577412507
H 2.0590050323 -7.2103190892 -1.0195121906
H 1.1749186614 -8.4586077369 -0.1289762421
H 0.2746944257 -7.2000063343 -0.9912482453
H 3.3581752699 -6.5914868355 1.1828623339
H 2.4272896253 -6.2585233366 2.6592010453
H 2.4739974132 -7.9000874527 1.9885605507
N -1.9489548640 0.1088393165 -0.2474930484
C -2.3430513419 0.0169921447 -1.4693467920
C -3.8247114684 0.1426464546 -1.6701774852
C -4.2940866039 0.6270939124 -0.2601095044
C -3.0942173324 0.3197691999 0.6651209411
H -2.8632894760 1.1490512529 1.3361923114
H -3.2375665550 -0.5793374143 1.2721758259
H -5.1963111607 0.0901010604 0.0340133961
H -4.2605425347 -0.8303809096 -1.9329777342
H -4.0982250140 0.8318641643 -2.4755527588
N -0.0519092751 -0.2218335160 -1.9783520274
C -1.2809300241 -0.2152536339 -2.4629112168
N -1.5664513418 -0.3445859530 -3.7623029528
C -0.5907440405 -0.8651477036 -4.7356341927
C 0.7895815569 -0.5301436870 -4.2165072183
C 1.0022566841 -0.2805988459 -2.9156272493
H -0.7591057330 -0.3890423477 -5.7041304434
H -2.5410674851 -0.3357324860 -4.0386324560
H 1.9911055712 -0.0809291755 -2.5225827544
H 1.6074621533 -0.5531969750 -4.9251130578
C -0.7615877724 -2.4112985640 -4.8689030198
O -1.3092135918 -3.0222339541 -3.9725293743
C -0.2429656573 -3.0674972814 -6.1506792683
O 0.6612051996 -2.1048155767 -6.7035834976
C 0.4706458133 -4.3872954673 -5.8360906372
C -1.4551601760 -3.2795261233 -7.0806455472
H 0.9208998827 -2.3974855310 -7.5925250969
H -0.1947378157 -5.0717840198 -5.3036020949
H 0.7861899519 -4.8682999523 -6.7678341292
H 1.3600312052 -4.2048138056 -5.2249905892
H -2.1792669998 -3.9674007513 -6.6349332795
H -1.9537557765 -2.3314530245 -7.3092698294
H -1.1135439039 -3.7154216123 -8.0266329581
C -4.5887326529 2.1402437831 -0.3052150503
O -3.7535637630 2.9429059823 0.0701629835
C -5.9646963530 2.5803329012 -0.8228258597
O -6.4057289241 1.5044338500 -1.6609529862
C -6.8897712435 2.7346981118 0.4019246688
C -5.8559534917 3.8888144904 -1.6139924742
H -7.3305242113 1.6690157556 -1.9089007734
H -6.5224813958 3.5142256260 1.0756430704
H -7.8908805087 3.0271141087 0.0642829067
H -6.9820058343 1.7950049471 0.9568068274
H -5.4235925462 4.6830097619 -1.0007840891
H -5.2325879488 3.7507509387 -2.5030208975
H -6.8508298241 4.2085073212 -1.9412465972
