145
# extracted from Terachem optimization
Fe -0.0874752148 -0.2949158252 -0.1143607761
N 0.3409359756 1.6445181612 -0.2959933009
C 1.5813691612 1.9798732401 -0.2748370045
O 1.8935033780 3.2640431310 -0.3097283976
C 0.6097770043 4.0178172398 -0.2915386019
C -0.4518396616 2.8916553145 -0.3240695768
H -1.1047467185 2.9296590647 0.5480481214
H -1.0894668323 2.9185977953 -1.2088993479
H 0.6110747651 4.6120829949 -1.2044719777
O 2.0168256223 -0.2850039320 0.0504409694
C 2.6759153865 0.9472658231 -0.2973798667
C 3.8655532997 1.2537055956 0.5705853887
C 4.4681691447 0.3351312190 1.3357049478
C 3.9123818219 -1.0748951428 1.4013698036
C 2.9654448901 -1.3716968928 0.2450804052
H 4.2270449050 2.2753750490 0.5374683572
H 3.0079860912 0.8754184434 -1.3506833739
H 2.3599886575 -2.2591297353 0.4214085438
H 3.5234791242 -1.4995063502 -0.6926615634
H 4.7325588117 -1.7985259291 1.3563468882
H 3.3938707174 -1.2291201513 2.3571104214
C 5.7170777786 0.7210906514 2.1481350106
O 5.8559959725 2.1350788209 2.1931450367
C 5.6196729909 0.2517043495 3.6031901023
C 7.0305920738 0.1994835889 1.4689489002
N 7.0514287594 -1.2380930936 1.2463810949
O 7.2121697612 0.8609448468 0.2295962244
H 6.3801944928 2.3793391080 1.4068964700
H 5.4502489975 -0.8264395955 3.6884670782
H 6.5418291993 0.5070295433 4.1340109705
H 4.7954353145 0.7713214258 4.1009779395
H 7.8571804369 0.5718066295 2.0913147266
H 7.9305517911 -1.4708101458 0.7837288652
H 7.0602315133 -1.7336101517 2.1376784796
H 6.5617867258 0.4779295973 -0.3863969146
C 0.5890358147 4.9312189544 0.9562284695
O 0.4718746468 4.1223774637 2.1249984875
C 1.8899954965 5.7336762439 1.0604111193
C -0.6495852300 5.8983020745 0.9337743375
N -0.9160985660 6.4102938792 -0.3982885125
O -1.8104914847 5.2479905085 1.4286615194
H -0.4639448332 4.2056555259 2.3970153867
H 2.0895632709 6.3111358413 0.1498735154
H 1.8308448619 6.4243804072 1.9060524763
H 2.7357296513 5.0638041604 1.2294201173
H -0.4406820330 6.6736011562 1.6859717816
H -1.6546323262 7.1114270789 -0.3421101316
H -0.0973400877 6.8906275818 -0.7700117805
H -2.3125110502 4.8449443799 0.6894668106
N -0.3326825090 -2.2560793326 0.2319934845
C -0.6199343757 -2.5792370736 1.4388421561
O -0.7900322356 -3.8619568793 1.7306053460
C -0.4827968554 -4.6238724766 0.5000101298
C -0.2711311482 -3.5009413038 -0.5573231827
H 0.6876638919 -3.5935301276 -1.0629181693
H -1.0675822069 -3.4967475580 -1.3087438629
H -1.3602850703 -5.2399501601 0.2994629753
O -0.3506904570 -0.3168030614 1.9425652769
C -0.8279219881 -1.5486347161 2.5148396965
C -0.1529753060 -1.8885159598 3.8177037633
C 0.5847042039 -1.0159563181 4.5151167905
C 0.7763968896 0.3956733951 3.9957860162
C -0.2537523211 0.7464836019 2.9342109643
H -0.2836592501 -2.9063256882 4.1671279950
H -1.9201986029 -1.4671007202 2.6701151364
H 0.0163319473 1.6423212534 2.3768518721
H -1.2495857668 0.8770183877 3.3778322413
H 0.6735979776 1.1114308600 4.8171108568
H 1.7855754715 0.5154939246 3.5810695001
C 1.2473713856 -1.4586035634 5.8303358489
O 1.2130209867 -2.8764790280 5.9465734643
C 2.7278904118 -1.0625369989 5.8729796315
C 0.4787788300 -0.9214725197 7.0858923178
N 0.3173414567 0.5231542737 7.1044267402
O -0.8004125727 -1.5276507426 7.1466336931
H 0.3793919531 -3.0890615882 6.4080172489
H 2.8849280840 0.0143247257 5.7547260065
H 3.1631484206 -1.3800044003 6.8252384672
H 3.2672324653 -1.5786127602 5.0725647087
H 1.0068944838 -1.3305496766 7.9596259027
H -0.1950163907 0.7736218066 7.9502410123
H 1.2239838998 0.9846243395 7.1724742923
H -1.3374085438 -1.1083377386 6.4501332151
C 0.7257194529 -5.5407102315 0.7506990773
O 1.8732379669 -4.6855047856 0.7065188667
C 0.6462950639 -6.2277268256 2.1230905508
C 0.8429601200 -6.5971961215 -0.3942509392
N -0.2727595671 -7.5264339213 -0.3825220812
O 0.8867007535 -5.9952469221 -1.6786713044
H 2.6609200628 -5.2233252680 0.8890859749
H -0.3240797364 -6.7022880829 2.3024282833
H 1.4232631017 -6.9976485613 2.2066648714
H 0.8088510084 -5.4941122860 2.9153863577
H 1.8296919941 -7.0745618480 -0.2572225531
H -0.0783267285 -8.3024810845 -1.0146092899
H -0.4327094785 -7.9328362037 0.5358346432
H 0.0082927174 -6.1540452571 -2.0674030898
N -2.0194996563 -0.0284320937 -0.4939647549
C -2.4233917894 -0.3616567202 -1.6617051260
O -3.7112376236 -0.1873323688 -1.9602911443
C -4.2409924683 0.7180588614 -0.9194506525
C -3.1769154281 0.5718678115 0.2014527315
H -2.8975351875 1.5299078650 0.6307198252
H -3.5206203293 -0.0967588173 0.9990311936
H -5.2080825840 0.3160036147 -0.6181091877
O -0.1682221115 -0.7257020341 -2.1767982595
C -1.4844558143 -0.8036277234 -2.7545656667
C -1.6740748158 0.1559004084 -3.9004136235
C -0.7134852889 0.9581677400 -4.3703864347
C 0.7201109257 0.7376405033 -3.9419774035
C 0.8618465170 -0.5802112109 -3.1879447076
H -2.7023448156 0.2773156273 -4.2139907141
H -1.6903452675 -1.8465318784 -3.0439694577
H 1.8012858853 -0.6586447404 -2.6417279066
H 0.7815293474 -1.4346337510 -3.8706547986
H 1.3599864413 0.6958786274 -4.8313612101
H 1.0743381511 1.5732330793 -3.3257483598
C -1.0955445868 2.1159131106 -5.3071341494
O -2.4866162013 2.4275555186 -5.1331462295
C -0.3269067061 3.3985147405 -4.9702873550
C -0.9374555608 1.7341426111 -6.8155088160
N 0.3923208416 1.2407690429 -7.1277790241
O -1.8913674959 0.7431067827 -7.1480946628
H -2.9639365654 1.8976806245 -5.8021639276
H 0.7571919046 3.2722142388 -5.0506640956
H -0.6377972067 4.1962698857 -5.6510351025
H -0.5614975427 3.7216259342 -3.9506113851
H -1.2494845009 2.6130592035 -7.3987776019
H 0.4100144348 0.9694563107 -8.1111344042
H 1.0846592669 1.9821597849 -7.0264871385
H -1.5607594021 -0.0961186957 -6.7779498537
C -4.4084207384 2.1067859189 -1.6050864841
O -3.1446825518 2.5090856761 -2.1272118200
C -5.4435130088 2.0000499514 -2.7371210640
C -4.8380383818 3.2364408797 -0.6201808533
N -6.0073289282 2.8748651377 0.1588783140
O -3.8011637687 3.5713516581 0.3139006601
H -3.1369151078 2.4581905613 -3.1038201167
H -6.4272084446 1.6734836014 -2.3840269559
H -5.5624723372 2.9712816267 -3.2284431280
H -5.1163748577 1.2730494709 -3.4854963111
H -4.9630757256 4.1328225408 -1.2444097676
H -6.4543800816 3.7097123886 0.5354580912
H -6.7130238862 2.3946945077 -0.3931125617
H -4.1515937078 3.3150877652 1.1854821726
