106
# extracted from Terachem optimization
Fe -0.1350485342 -0.2132508686 -0.4261801442
N 0.1892381877 2.0658218068 -0.0662296808
C 1.4740556727 2.2234304434 0.1116138116
O 1.8305733491 3.4908506005 0.3774681820
C 0.6551595154 4.2171060286 0.3576865547
C -0.3499191907 3.3320903582 0.0798656042
H -1.4042515327 3.5371810911 -0.0137817602
N 2.0069827298 -0.0715965803 -0.1982366073
C 2.4372296498 1.1329519912 0.0524832945
N 3.7678111236 1.2738371826 0.2206533882
C 4.3804269605 -0.0743279316 0.3136478373
C 3.1980956848 -0.9492852789 -0.2198137287
H 3.0430501885 -1.8348392918 0.3968495163
H 3.3787151292 -1.2781423879 -1.2503676721
H 5.2425385395 -0.1109190180 -0.3575680007
H 4.1838476736 2.0927882098 0.6449631284
C 4.8274220468 -0.3768177991 1.7506002251
C 5.6983919112 -1.6330679893 1.9106648948
O 4.8508119686 -2.7550528125 1.6129062203
N 6.8967057290 -1.5526666559 1.1091766642
H 5.4258645594 0.4653437840 2.1159671512
H 3.9461985562 -0.4698599120 2.3974619134
H 6.0193244072 -1.6766632800 2.9599729900
H 5.3599122218 -3.5644959291 1.7829201657
H 7.6356864137 -2.1546796044 1.4629544239
H 6.7129436539 -1.8229002299 0.1455512413
C 0.7514644617 5.6833174800 0.6119099341
C -0.4430414375 6.2412690728 1.4153744833
O -1.6717865706 6.0123273306 0.6991394979
N -0.4962349564 5.6561726506 2.7227994271
H 1.6777214554 5.8896018602 1.1562020568
H 0.8128781412 6.2155958205 -0.3469839852
H -0.2846396149 7.3193261320 1.5387636484
H -1.7852551448 6.7099966651 0.0325468172
H -1.2243794175 6.1103913718 3.2704797089
H -0.7488979994 4.6714036196 2.6564391114
N -0.4213569346 -2.4947644208 -0.1964018563
C -0.6577668100 -2.7479986273 1.0640697383
O -0.8354024894 -4.0523585467 1.3291355004
C -0.7001503447 -4.6973065272 0.1144476937
C -0.4462165370 -3.7294347812 -0.8190952299
H -0.2741903839 -3.8586002128 -1.8751820744
N -0.5175262537 -0.4757678090 1.7149511433
C -0.7065459772 -1.7116688350 2.0815946553
N -0.9644743149 -1.9162997463 3.3923696270
C -0.6603671011 -0.6593979936 4.1227843778
C -0.6728171088 0.3506194612 2.9320388451
H 0.1261159785 1.0868566178 3.0171914643
H -1.6299468047 0.8852032096 2.8755581424
H -1.4700894235 -0.4599248081 4.8290486308
H -0.8675170059 -2.8259085576 3.8264501488
C 0.6731986672 -0.7726658251 4.8755095503
C 0.9721995275 0.3758688974 5.8520385687
O 1.2052466548 1.5462913096 5.0488178495
N -0.0708332533 0.5156751018 6.8398536151
H 0.6598937130 -1.6917336135 5.4721937288
H 1.4971094591 -0.8511400021 4.1553401244
H 1.8890308909 0.1114616536 6.3956337440
H 1.4465216706 2.2725843840 5.6469373927
H 0.2554847040 0.9825708422 7.6818168204
H -0.8603782869 1.0444434965 6.4766123982
C -0.8565950052 -6.1797082931 0.0898564772
C 0.2273856923 -6.8867689967 -0.7563188340
O 0.1746141746 -6.4172376364 -2.1161937909
N 1.5271094514 -6.6739922559 -0.1897682537
H -0.8170076323 -6.5608283154 1.1141577362
H -1.8441041334 -6.4354232990 -0.3165899976
H 0.0211616717 -7.9632154897 -0.7269607580
H -0.4901681098 -6.9316117763 -2.6031954247
H 2.2138322031 -7.2380663265 -0.6864884047
H 1.8055532065 -5.7012166762 -0.3109626706
N -2.4556378164 0.0694646916 -0.7685188786
C -2.6244978849 0.1400259658 -2.0616538956
O -3.9066271798 0.2994822151 -2.4338682881
C -4.6280050613 0.3318871970 -1.2563473738
C -3.7254555692 0.1877600674 -0.2367077323
H -3.9230964900 0.1712503006 0.8229631036
N -0.3117533559 -0.0843959672 -2.5397464890
C -1.5230991755 0.0614273993 -3.0066540366
N -1.6408913981 0.1030311671 -4.3465249699
C -0.2869365838 0.2086563850 -4.9462833059
C 0.5892708342 -0.1801229491 -3.7105096305
H 1.4494665833 0.4801221674 -3.5982165414
H 0.9545699319 -1.2112764410 -3.7930002114
H -0.2011154256 -0.5306923004 -5.7468267145
H -2.4791121770 0.4162660959 -4.8188590177
C -0.0498090939 1.6115299492 -5.5208021135
C 1.2497746866 1.7721700724 -6.3271067176
O 2.3212385367 1.7530189218 -5.3689675600
N 1.3524114405 0.7811775538 -7.3725601912
H -0.8750158904 1.8482010252 -6.2025996341
H -0.0575141965 2.3529965377 -4.7128282104
H 1.2098147043 2.7528181960 -6.8191181966
H 3.1481717220 1.9376953980 -5.8438487914
H 1.9658399439 1.0813520735 -8.1257847691
H 1.7156761231 -0.0978270553 -7.0103745842
C -6.1087473330 0.4799802795 -1.3524480877
C -6.6909939243 1.4438216987 -0.2938600560
O -6.3690312321 0.9790978613 1.0305279861
N -6.2036327758 2.7754095390 -0.5032891174
H -6.3682475107 0.8457983665 -2.3499596236
H -6.5800811013 -0.5048945781 -1.2332871408
H -7.7793452290 1.4620010267 -0.4255113619
H -7.0223228123 0.3115819609 1.2979018066
H -6.6873335504 3.4219730300 0.1165539047
H -5.2138891492 2.8283261848 -0.2676137752
