151
# extracted from Terachem optimization
Fe 0.0364085745 -0.1037093298 -0.0234801708
N 0.3582385266 1.8718164975 -0.2102796274
C 1.6086126870 2.2154491420 -0.1373680339
N 1.8965585857 3.4793828181 -0.5176413888
C 0.6402341579 4.2232049360 -0.7200734955
C -0.3921307017 3.0466949150 -0.6838643647
H -1.2364378052 3.2521078807 -0.0208238342
H -0.8131367852 2.8397313650 -1.6738307171
H 0.6713756065 4.6948517239 -1.7060212068
H 2.7721580921 3.9378290056 -0.3099287258
N 2.0708151629 -0.0280028671 0.2734112699
C 2.5767162785 1.1646180757 0.2571482658
S 4.1792115331 1.7063061626 0.6968675033
C 5.1221321703 0.1077764788 0.9065416274
C 4.3671184228 -1.0297362239 0.2210048419
C 2.9117685665 -1.1531504350 0.6878001660
H 5.1386584048 -0.0554905527 1.9864632756
H 4.3864209313 -0.8793483017 -0.8646304211
H 4.8893053804 -1.9672519235 0.4369467495
H 2.8683521410 -1.2293225324 1.7843981392
H 2.4467623644 -2.0610292015 0.3036526768
C 6.5964634390 0.3519020568 0.4210142040
N 6.5579462430 0.5324601401 -1.0361530917
N 7.1743488846 1.5863598980 0.9455776542
C 7.5410012112 -0.7863820951 0.8812498239
C 7.2552333135 -1.6581113950 1.8553462561
C 8.8863238371 -0.8110641458 0.1908641582
H 7.4258095904 0.9843132752 -1.3201035281
H 6.5364681556 -0.3700184081 -1.5065253737
H 6.7024924025 2.4158399143 0.5923305369
H 7.2068928400 1.6028002230 1.9608138635
H 7.9819516137 -2.4066458681 2.1584159615
H 6.3191724936 -1.6735365073 2.4048273636
H 8.8038600661 -1.0954369000 -0.8656137909
H 9.3532020144 0.1788553084 0.2271129487
H 9.5560124964 -1.5272223617 0.6733476995
C 0.4336159589 5.3530449058 0.3447926968
N 0.3495210296 4.7130373569 1.6740581709
N 1.5858527910 6.2475770561 0.4315175627
C -0.7977687234 6.2228402856 0.0210290936
C -1.5589517197 6.0587840635 -1.0681878733
C -1.1074683857 7.3106613249 1.0251176119
H 0.5246404105 5.4348036392 2.3726884411
H -0.6009541692 4.3865341000 1.8397832960
H 2.4170634548 5.7671989070 0.7680385689
H 1.7848357632 6.7120285879 -0.4506805931
H -2.4131584071 6.7060381982 -1.2478409263
H -1.3762949083 5.3115447261 -1.8338610264
H -1.3701053441 6.8974375488 2.0074864324
H -0.2371781706 7.9565644688 1.1760679858
H -1.9475702940 7.9231784953 0.6885514670
N -0.2017327648 -2.0909557931 0.2243061492
C -0.4631006807 -2.4373607835 1.4475947077
N -0.8408829495 -3.7227244826 1.6282501925
C -0.6309625909 -4.4696123474 0.3751662171
C -0.4082195609 -3.2809865930 -0.6201247604
H 0.4485391582 -3.4375915503 -1.2812487751
H -1.2864693897 -3.1263758331 -1.2580336459
H -1.5470112049 -5.0174830642 0.1411505449
H -0.8477568828 -4.1752222921 2.5309768586
N -0.1912278045 -0.1928000383 2.0134120309
C -0.4041673217 -1.3796422321 2.4854319958
S -0.5875214692 -1.9030174340 4.1455508561
C -0.7221920421 -0.2959082348 5.0865859175
C -1.0280398868 0.8534151393 4.1279295707
C -0.0642567309 0.9340374696 2.9398962574
H 0.2676227551 -0.1619587829 5.5280840349
H -2.0508068427 0.7531592277 3.7486841285
H -0.9730914285 1.7892189766 4.6935139413
H 0.9779812558 0.9713570017 3.2904771120
H -0.2280555211 1.8430625354 2.3610865116
C -1.7649894129 -0.5021860862 6.2459934837
N -3.0918061967 -0.6204417908 5.6249553995
N -1.5755047064 -1.7501107660 6.9801704041
C -1.6698728368 0.6285671113 7.2993928963
C -0.6265056891 1.4569974712 7.4256787206
C -2.8350974345 0.6995146681 8.2602931678
H -3.7190587365 -1.0567036088 6.2989956953
H -3.4789867391 0.2989395271 5.4231200352
H -1.7437455545 -2.5691402864 6.3998434029
H -0.6642089292 -1.8107782603 7.4252209278
H -0.6038798349 2.2021626707 8.2158680345
H 0.2488385186 1.4368807177 6.7839009111
H -3.7583114800 1.0278455967 7.7663870367
H -3.0319866732 -0.2843469761 8.6992202905
H -2.6277952690 1.4035793769 9.0700271044
C 0.5402111253 -5.5006378346 0.4793469690
N 1.7869738191 -4.7437256306 0.7290715985
N 0.3989965171 -6.3900305248 1.6308838541
C 0.6282935843 -6.3939315867 -0.7747852930
C -0.2419671025 -6.3384621637 -1.7906133310
C 1.7812685330 -7.3721753942 -0.7953458478
H 2.4567532258 -5.3950437354 1.1387499639
H 2.1923629284 -4.4604759343 -0.1617400134
H 0.4529682413 -5.8891429003 2.5147730641
H -0.4553086410 -6.9400086795 1.5951328290
H -0.1327286131 -6.9957987860 -2.6487174719
H -1.0978030078 -5.6719729511 -1.8253453515
H 2.7522374144 -6.8602478273 -0.7999564281
H 1.7657804312 -8.0120566321 0.0925288218
H 1.7382529287 -8.0056767906 -1.6848225449
N -1.9290135950 0.0778511270 -0.3817291829
C -2.2558863886 -0.0939726260 -1.6246605622
N -3.5822634984 -0.2162124672 -1.8837086228
C -4.3287361114 0.1643226096 -0.6670106921
C -3.1786735482 0.1358171267 0.3943183998
H -3.1866533137 1.0086887354 1.0535093560
H -3.2495583945 -0.7512752424 1.0351152863
H -5.0752911107 -0.6063935330 -0.4606467074
H -3.9554797546 0.0261035523 -2.7927395740
N 0.0200911267 -0.2953738765 -2.0563490342
C -1.1514910407 -0.2373160689 -2.6053544424
S -1.6138422945 -0.2658103377 -4.2928828342
C 0.0508516078 -0.2227196700 -5.1173122407
C 1.0357760289 -1.0212824632 -4.2631069424
C 1.2342114447 -0.4332304970 -2.8642929569
H 0.3314158583 0.8334577134 -5.1303828911
H 0.6871295386 -2.0571091855 -4.1837800318
H 2.0084363354 -1.0363404269 -4.7666217197
H 1.7029828034 0.5591657875 -2.9209279042
H 1.9238429248 -1.0616656376 -2.2937045311
C -0.1245606999 -0.7064375600 -6.5996900218
N -0.4769705454 -2.1296486973 -6.5582886865
N -1.2379617192 -0.0645133408 -7.2915983731
C 1.1375637127 -0.3952433574 -7.4439708833
C 2.0813907073 0.4867657499 -7.0948516731
C 1.2106005410 -1.1223139462 -8.7675889149
H -0.8137377464 -2.4027722271 -7.4798481963
H 0.3417796526 -2.7025126936 -6.3640039957
H -2.1415661150 -0.3381039021 -6.9111545168
H -1.1545831951 0.9474650969 -7.3168819769
H 2.9210900297 0.6893629265 -7.7537563107
H 2.0726555430 1.0550391693 -6.1698555482
H 1.3592009296 -2.2012948054 -8.6360373586
H 0.2819582292 -0.9862125092 -9.3321622719
H 2.0402231010 -0.7466970312 -9.3716553172
C -5.0763142034 1.5284220135 -0.8428092091
N -4.0656205800 2.5507591571 -1.1720958382
N -5.9856576611 1.5230814563 -1.9862839381
C -5.9231686947 1.8813053942 0.3975235701
C -6.1332154250 1.0434361292 1.4201496079
C -6.5481224180 3.2584712364 0.3840757135
H -4.5571240080 3.3656451772 -1.5381097179
H -3.5970939641 2.8628171000 -0.3234396193
H -5.4951539682 1.4630816000 -2.8754171785
H -6.6949604522 0.7979352418 -1.9244500958
H -6.7574435745 1.3394778999 2.2588870670
H -5.7285023046 0.0379311438 1.4770642751
H -5.7911680612 4.0512446360 0.4444304074
H -7.1095593276 3.4196372098 -0.5417315619
H -7.2271206628 3.3857687525 1.2309048789
