148
# extracted from Terachem optimization
Fe -0.0151090526 -0.1867408585 -0.1113940413
O 0.1460119543 2.0376374690 -0.3394047432
C 1.4541678439 2.5988532784 -0.3631496009
S 1.5372270987 4.1328157029 0.6664621658
C 0.1577630377 5.1061626147 -0.1112666065
C -1.0663408891 4.1839125039 -0.3080051775
C -0.8259460922 2.8759955165 -1.0455343235
H -0.1020333014 5.7999706793 0.6917887881
H 1.6990531369 2.8851812776 -1.3941275892
H -1.7354714237 2.2750712852 -1.0881245489
H -0.4682439224 3.0242550501 -2.0689923693
H -1.8376426496 4.7387469653 -0.8484783611
H -1.4707855123 3.9526599510 0.6840418781
N 2.0555759264 0.3598032474 0.2120876388
C 2.4740136302 1.5677117290 0.0977721368
C 3.8985395571 2.0277034623 0.3033238528
C 4.7836154220 0.9716631365 0.9905002094
C 4.4682735699 -0.3942640974 0.3685071613
C 2.9937410356 -0.7246784716 0.5833179721
H 4.4820893193 0.9378199051 2.0432670786
H 4.6897955826 -0.3861025486 -0.7065519295
H 5.0814547076 -1.1789586210 0.8194889043
H 4.2977791980 2.3051398630 -0.6845803197
H 3.8973642067 2.9591103873 0.8826052930
H 2.7913205320 -0.9687194098 1.6336485754
H 2.6945027748 -1.6038451872 0.0042830351
C 6.2805808388 1.4011602834 0.9722880959
C 6.9556765833 1.2468342557 -0.3971603055
C 7.0606865249 0.6620969186 2.0869486272
O 6.3785811419 0.7808113571 3.2643486725
O 7.3056220710 -0.6837056007 1.8465169473
Cl 8.7390467105 1.5175877111 2.2845790204
H 6.3067281524 2.4589338983 1.2600637083
H 7.9614521111 1.6739058104 -0.3842005368
H 7.0346894831 0.1968801446 -0.6972881500
H 6.3987697742 1.7754046505 -1.1782134320
H 6.8448974359 0.2537343218 3.9397045781
H 8.0992633634 -0.7866254082 1.2946695233
C 0.6830549619 6.0060176495 -1.2821759598
C 1.3802304985 5.3312098894 -2.4698245602
C -0.3858990902 7.0358243227 -1.7555500513
O -1.0153671422 7.5408329423 -0.6418711282
O 0.1764659454 8.0174752183 -2.5558039794
Cl -1.6254056690 6.2403524706 -2.8969720954
H 1.4333771929 6.6518078278 -0.8047588033
H 0.7437773342 4.6069387641 -2.9850531397
H 1.6548663779 6.0928312656 -3.2033388898
H 2.3074089077 4.8450117059 -2.1493658677
H -1.6627873032 8.2142969763 -0.9238959674
H 0.5823925548 8.6880060680 -1.9750716909
O -0.1868711253 -2.3058176660 0.5739772638
C -0.3313069306 -2.5683655876 1.9631894854
S 1.1173054850 -3.5140305454 2.6371824561
C 1.1304039979 -4.9538840347 1.4597184096
C 0.9713953563 -4.4238944703 0.0204209168
C -0.2228936301 -3.5196914729 -0.2444552176
H 2.1641996255 -5.2972111753 1.5465196981
H -1.2265347477 -3.1835993266 2.1165936476
H -0.2059545072 -3.1471465473 -1.2689232577
H -1.1779615966 -4.0236740372 -0.0670520497
H 0.9076330405 -5.2739821067 -0.6635885888
H 1.8858114352 -3.8758087718 -0.2342610976
N -0.4767066974 -0.1765476876 2.0332521728
C -0.5021347419 -1.2611839870 2.7204424747
C -0.7401146352 -1.3575109830 4.2106877716
C -0.5352021414 -0.0112171071 4.9242124637
C -1.2721073125 1.0597416111 4.1106470803
C -0.6957508914 1.1320446465 2.6981478559
H 0.5365081349 0.2158291866 4.8849497972
H -2.3431884966 0.8240455425 4.0595066004
H -1.1842682976 2.0422337562 4.5815161795
H -1.7671011766 -1.7294400955 4.3494579812
H -0.0910143506 -2.1332212254 4.6342071606
H 0.2733146562 1.6473016499 2.6890098286
H -1.3529055847 1.7078152576 2.0388940518
C -0.9045310942 -0.1019946867 6.4330020423
C -2.3962830779 -0.3348615130 6.7085202698
C -0.3817648365 1.1447736601 7.1910158048
O 0.9045258785 1.4052653313 6.8093424022
O -1.1360878567 2.2985129166 7.0161924092
Cl -0.3803807176 0.7391336481 9.0394861733
H -0.3384255730 -0.9478902946 6.8401129008
H -2.5790818720 -0.4253254092 7.7829283284
H -3.0193269387 0.4795018051 6.3250457827
H -2.7446740909 -1.2689991321 6.2566615922
H 1.1856151389 2.2312713842 7.2455183256
H -1.8745403338 2.3146426107 7.6482221544
C 0.2505859187 -6.1404813125 1.9769197332
C -1.2164037535 -5.8659255330 2.3309222075
C 0.4016171894 -7.4081332975 1.0848874426
O 1.7199252691 -7.5047190160 0.7015217074
O -0.0711067389 -8.5437791019 1.7198846334
Cl -0.6961671077 -7.3011307610 -0.4187508346
H 0.7421340050 -6.4464455673 2.9111722695
H -1.7992449399 -5.4857426551 1.4876102414
H -1.6883722802 -6.7990724536 2.6481832929
H -1.2840868453 -5.1666376608 3.1703741112
H 1.8386705898 -8.3366619040 0.2053718213
H 0.5846680444 -8.8148675263 2.3893912725
O -2.1353636349 -0.3660601074 -0.7880302047
C -2.4073292206 -0.6184266729 -2.1616581505
S -3.4607232535 0.7154932492 -2.9063041576
C -4.8794453967 0.7146670738 -1.7024568613
C -4.3186616570 0.6777479152 -0.2668103553
C -3.3353090823 -0.4375284860 0.0513404109
H -5.2821037055 1.7203955164 -1.8453507886
H -2.9549156351 -1.5651327888 -2.2474110863
H -2.9511480217 -0.3413164185 1.0666100356
H -3.7767858153 -1.4315069556 -0.0681091435
H -5.1520134150 0.6038152069 0.4363944964
H -3.8258575591 1.6383390849 -0.0762279154
N -0.0102012529 -0.6085282480 -2.2570453868
C -1.0994452045 -0.7348450331 -2.9291999956
C -1.1926941224 -1.0456785784 -4.4052899955
C 0.1276207643 -0.7894876204 -5.1511599512
C 1.2611140644 -1.3989817896 -4.3169074460
C 1.3021453597 -0.7431387766 -2.9387144890
H 0.2770560516 0.2958001585 -5.1781052672
H 1.1109806802 -2.4806730605 -4.2044120033
H 2.2288548128 -1.2601464694 -4.8058606884
H -1.4985506389 -2.1001894222 -4.4906439867
H -2.0135629612 -0.4702440893 -4.8490756952
H 1.7194354357 0.2705999322 -2.9997644216
H 1.9523169945 -1.3025150444 -2.2587173540
C 0.0414369418 -1.2560308251 -6.6332624545
C -0.0162175005 -2.7792907360 -6.8115536574
C 1.1959755000 -0.6361057401 -7.4603788438
O 1.2968527860 0.6948091333 -7.1706214395
O 2.4393848555 -1.2244884897 -7.2723134523
Cl 0.7497634617 -0.8234966946 -9.2925051650
H -0.8756952748 -0.8182746151 -7.0439404109
H -0.1578946974 -3.0380354904 -7.8639408711
H 0.8992448908 -3.2658487994 -6.4598734427
H -0.8592751164 -3.2155639812 -6.2660126257
H 2.0588212406 1.0528656169 -7.6629720073
H 2.5243854927 -2.0195115049 -7.8252291309
C -6.0241111607 -0.2584462107 -2.1396061412
C -5.6718284929 -1.7247037529 -2.4207946088
C -7.2775027608 -0.1302548909 -1.2252667589
O -7.4380003474 1.1992559241 -0.9055476039
O -8.4013425905 -0.6933486690 -1.8044706461
Cl -7.0727563330 -1.1406026965 0.3310421676
H -6.3777371630 0.1626665706 -3.0910676600
H -5.2389234559 -2.2365060083 -1.5573106866
H -6.5825993363 -2.2660595815 -2.6885681830
H -4.9874678290 -1.7968769320 -3.2721221676
H -8.2637725836 1.2980226534 -0.3948752414
H -8.7243578306 -0.0861257052 -2.4962266392
