148
# extracted from Terachem optimization
Fe 0.1999328402 -0.3329833287 -0.1181548491
N 0.4526313431 1.6321591411 -0.2695931158
C 1.6796140463 2.0284177177 -0.1474282097
S 2.0231669977 3.7276391500 -0.3335281616
C 0.2658675623 3.9829968317 -0.9284152145
C -0.5051927549 2.7290782725 -0.4875520749
H -1.0418300604 2.8991679675 0.4503453550
H -1.2367070347 2.4622312971 -1.2488446073
H 0.3168967873 4.0439910705 -2.0147864332
N 2.1808780249 -0.2448253830 0.1319455435
C 2.6856878398 0.9620230110 0.1150569918
S 4.3089734796 1.4905150721 0.3792610888
C 5.2537437962 -0.1162710489 0.4794187323
C 4.4600913272 -1.2636925373 -0.1277779734
C 3.0463163310 -1.3912136440 0.4469427219
H 5.4387463699 -0.2956984478 1.5386395234
H 4.4091780552 -1.1455971784 -1.2155593111
H 5.0053344406 -2.1885541171 0.0791448848
H 3.0845445170 -1.5047029065 1.5395923369
H 2.5587652808 -2.2807025648 0.0460853028
C 6.6200363174 0.1885440580 -0.2031855131
O 6.4651705952 0.4408174270 -1.5720368760
O 7.0582926662 1.3664318562 0.4332018289
C 7.6609979203 -0.9805127206 -0.0027409292
N 7.5079021496 -1.5122785954 1.3492062600
O 7.2438194704 -1.9755345292 -0.9446402628
C 9.0818740828 -0.5102101788 -0.3438173165
H 6.7065521327 -0.3915579151 -2.0242912670
H 7.6131225901 1.8508659321 -0.2029948953
H 8.0886376416 -2.3439722290 1.4587100894
H 7.8609277400 -0.8297790282 2.0214693191
H 8.0085470224 -2.5261394391 -1.1813896525
H 9.1384075988 -0.0832195557 -1.3506425494
H 9.4350032474 0.2349152447 0.3735222352
H 9.7704373550 -1.3629488446 -0.2931338860
C -0.3037433074 5.3198415839 -0.4022429789
O -0.4573501927 5.3194746061 0.9990890375
O 0.6448574366 6.2712301809 -0.8236110793
C -1.7371152183 5.6079539230 -0.9877229242
N -1.7062634552 5.2984504550 -2.4080858321
O -2.6616086236 4.6660850237 -0.4335782975
C -2.1947809908 7.0359045459 -0.6488506846
H 0.4285061907 5.3913412274 1.3966951967
H 0.3901717814 7.1467774348 -0.4832934696
H -2.6360103100 5.4479602704 -2.7994400985
H -1.0795913722 5.9483774246 -2.8818783518
H -2.8017837973 4.9159044724 0.4950684271
H -2.1479649217 7.2353753216 0.4271494698
H -1.5936787379 7.7888757485 -1.1697667694
H -3.2303000521 7.1611167120 -0.9796840939
N -0.0340615424 -2.2673848829 0.0235081043
C -0.1971380661 -2.7081660843 1.2338253096
S -0.5723239613 -4.3941522165 1.4443803479
C -0.8570277737 -4.5118202596 -0.4054023420
C -0.0959326009 -3.3235499619 -1.0006286714
H 0.9294917749 -3.6085509286 -1.2624625476
H -0.5904388572 -2.9664456155 -1.9024219043
H -1.9305572143 -4.3982708004 -0.5517759804
N 0.0305352661 -0.4688572627 1.8688442472
C -0.1040701799 -1.6898505056 2.3151031786
S -0.1657184724 -2.2840425246 3.9368735933
C -0.1521013079 -0.7040806292 4.9280902318
C -0.6628904701 0.4630841380 4.0956666207
C 0.1383150671 0.6576710279 2.8066461059
H 0.8827465565 -0.5347404781 5.2258785881
H -1.7252040339 0.3301635649 3.8629550400
H -0.5657435136 1.3684956594 4.7015753217
H 1.2028948040 0.8138863886 3.0313841440
H -0.2096661281 1.5469612528 2.2774456528
C -0.9667907007 -1.0392008929 6.2109142409
O -2.3062813265 -1.3156990246 5.9185778520
O -0.3544382803 -2.2150502366 6.6889100429
C -0.8893228591 0.1126669841 7.2856087477
N 0.4576108037 0.6806843055 7.2669430967
O -1.8135580192 1.0972514261 6.8073111546
C -1.3423940190 -0.3923259813 8.6622010412
H -2.8002510674 -0.4911575249 6.0968002891
H -1.0297035251 -2.7140796589 7.1814644631
H 0.4884579700 1.4968192903 7.8785588077
H 1.1106050727 0.0052147660 7.6671788532
H -2.1447848010 1.6109351952 7.5624035435
H -2.3412541018 -0.8397820776 8.6231583182
H -0.6425375738 -1.1291554072 9.0642958759
H -1.3701787708 0.4480313222 9.3673013556
C -0.4521168465 -5.8978012215 -0.9440238875
O 0.9332365533 -6.1446330274 -0.8334013549
O -1.2013229539 -6.7876397985 -0.1531507783
C -0.7762603541 -6.0143876713 -2.4824305056
N -2.0626049342 -5.3754988633 -2.7277273430
O 0.1581385811 -5.2142598220 -3.2048933924
C -0.6875679648 -7.4729409016 -2.9588469689
H 1.1303829217 -6.3552344972 0.0960671693
H -0.9920250039 -7.7004347793 -0.4177897679
H -2.1952315018 -5.2973296726 -3.7356310044
H -2.8138721621 -5.9655335326 -2.3719479486
H 1.0174713150 -5.6630362828 -3.1379654238
H 0.2793023941 -7.9263376777 -2.7120616441
H -1.4838984963 -8.0928171794 -2.5324174074
H -0.8066496992 -7.4892101029 -4.0461785299
N -1.7483168316 -0.1202584877 -0.3285927231
C -2.1336212275 0.0024879220 -1.5610721842
S -3.7885042890 0.4166133464 -1.8723437984
C -4.1656890710 0.2232235439 -0.0509833623
C -2.8040306286 0.1283292326 0.6671092938
H -2.5758906537 1.0623250445 1.1872592294
H -2.8215057378 -0.6740892906 1.4059408776
H -4.7223797199 -0.7069278533 0.0507341683
N 0.1197991408 -0.3090633997 -2.1165513216
C -1.0828765871 -0.1705367278 -2.6036704784
S -1.6282556027 -0.1440505539 -4.2454408944
C -0.0486619743 -0.4670193618 -5.1824521944
C 0.9688555565 -1.1914525077 -4.3122600151
C 1.2785113136 -0.4442670126 -3.0117420487
H 0.3321530107 0.5081211497 -5.4869333352
H 0.6219835884 -2.2069909240 -4.0909696648
H 1.8947861710 -1.2778873330 -4.8883852994
H 1.6582057505 0.5636708241 -3.2288227068
H 2.0596887932 -0.9648387006 -2.4550618973
C -0.4953082940 -1.2324218817 -6.4630924056
O -0.9379311974 -2.5263080096 -6.1616996424
O -1.5847283234 -0.4786697525 -6.9447618881
C 0.6489797901 -1.3025366762 -7.5438993512
N 1.3549134040 -0.0232914795 -7.5579665946
O 1.5317070706 -2.3175562965 -7.0522217121
C 0.0874630032 -1.7260278370 -8.9090365854
H -0.1773678188 -3.1173008769 -6.3287169437
H -2.1702134362 -1.0881164898 -7.4275023716
H 2.1565856243 -0.0860668483 -8.1856932856
H 0.7414709360 0.6905353656 -7.9538017837
H 2.0120959276 -2.7070064464 -7.8012260974
H -0.4670504701 -2.6682358625 -8.8472064412
H -0.5694037221 -0.9565786148 -9.3224155388
H 0.9153853433 -1.8600554129 -9.6165199673
C -5.0867078406 1.3711801283 0.4361162482
O -4.4180907538 2.6043235364 0.5528565180
O -6.1092196636 1.4071209795 -0.5335121352
C -5.6514867201 1.0582671604 1.8718679560
N -6.0984784607 -0.3246754815 1.8819774974
O -4.5758868830 1.1016642761 2.8109213782
C -6.7318403683 2.0769964942 2.2749324872
H -4.1800395725 2.9539545769 -0.3264160123
H -6.7002313529 2.1555320033 -0.3408587742
H -6.4043323721 -0.5693177357 2.8228172655
H -6.9028534321 -0.4292640238 1.2647965754
H -4.3864382518 2.0407431527 2.9692310039
H -6.3746022209 3.1099065780 2.1984910334
H -7.6328951552 1.9756069482 1.6606144096
H -7.0230825981 1.8852049468 3.3122357229
