172
# extracted from Terachem optimization
Fe 0.0118495623 -0.3086613131 -0.0871363285
O 0.8374466982 1.5342045872 -0.3539621069
C 2.2232454725 1.3873783487 -0.7760320330
S 2.9462305236 3.0444488858 -0.7638932749
C 1.3777084598 3.5798767165 -1.6107236581
C 0.2843108569 2.7981196938 -0.8624594564
H -0.0630003760 3.3523381423 0.0107795052
H -0.5480859144 2.5581636095 -1.5258578720
H 1.4345171303 3.2203065226 -2.6430760344
H 2.2149502881 0.9939695231 -1.7993519399
O 2.0023743735 -0.7987228959 0.1008063438
C 2.8889541098 0.3704546345 0.1218304933
O 3.0602662068 0.8536812953 1.3971057795
C 3.8300566903 -0.0734256844 2.2441915178
C 3.0275562438 -1.3798693386 2.2975077099
C 2.5959070980 -1.8687563249 0.9153354664
H 3.7861969710 0.4132013227 3.2221264291
H 3.8412693711 0.0432779970 -0.3164386024
H 1.8277943274 -2.6322877618 1.0113241603
H 3.4351735870 -2.2608424259 0.3311889751
H 3.5954566424 -2.1764265584 2.7883436476
H 2.1314046139 -1.2134887632 2.8982182799
C 5.2798544548 -0.1408152125 1.7902231149
C 5.9830768152 1.0620607881 1.6301758720
C 7.3207613234 1.0628705318 1.2399624984
C 7.9943043520 -0.1397614381 0.9910742393
C 9.4761298042 -0.1069984038 0.6148886603
O 9.8986078550 1.1430660975 0.1920129508
C 10.3857459690 -0.5298368343 1.7609719772
Cl 9.7218436285 -1.3249209220 -0.8019473489
C 7.3016837132 -1.3422074933 1.1704006334
C 5.9644372152 -1.3427816198 1.5637159121
H 5.4832148245 2.0085371704 1.8194046602
H 7.8548262601 2.0020089966 1.1437577220
H 9.4166465076 1.3854789290 -0.6171230854
H 10.1405264769 -1.5351600230 2.1089578060
H 11.4258761731 -0.5029026009 1.4292755836
H 10.2572597117 0.1763996134 2.5881561454
H 7.8037143768 -2.2856894994 0.9839556095
H 5.4717189461 -2.3005305077 1.7015722712
C 1.1670725625 5.0748784604 -1.6205631502
C 1.0792444790 5.7504080387 -2.8418499783
C 0.8931105469 7.1325034889 -2.8790093687
C 0.8008908644 7.8734272058 -1.6956493397
C 0.5444295290 9.3803711713 -1.7931413854
O 0.9405480168 9.9048602751 -3.0139120747
C -0.9252181426 9.7358390152 -1.6027069539
Cl 1.5211193560 10.2308856530 -0.4355630290
C 0.8797244715 7.1951851097 -0.4703185032
C 1.0627827427 5.8165177697 -0.4328882398
H 1.1609258779 5.1991881436 -3.7755661161
H 0.8203866774 7.6431499357 -3.8329384487
H 1.9010200498 9.7865191740 -3.1139620549
H -1.2911052355 9.3887235488 -0.6345068635
H -1.0501792680 10.8187142366 -1.6706378123
H -1.5110877166 9.2600230569 -2.3963838312
H 0.8304115351 7.7547569503 0.4574074927
H 1.1577497970 5.3219080659 0.5309252612
O -0.7884412480 -2.1575104306 0.2864663143
C -1.3166558318 -2.3488486694 1.6360041583
S -0.4526488989 -3.7897335656 2.3353206642
C -0.7354157983 -4.5833995102 0.6812284356
C -0.4166431441 -3.4522741418 -0.3093974097
H 0.6493295775 -3.4194546221 -0.5354955717
H -0.9852248198 -3.5792139656 -1.2347831612
H -1.8027111709 -4.8196199553 0.6214066938
H -2.3787855377 -2.5933062399 1.5284020561
O -0.1273610305 -0.2315821722 1.9467812847
C -1.2069843044 -1.0588054946 2.4634104006
O -0.9657537183 -1.4084835628 3.7712912553
C -1.0083824932 -0.2655667933 4.6921549371
C 0.0897256186 0.6987890502 4.2233747676
C -0.0068302099 1.0083863286 2.7283123858
H -0.7105651370 -0.7165810264 5.6419394347
H -2.1298192735 -0.4722353634 2.3753829125
H 0.8964755008 1.4845486391 2.3533160881
H -0.8788983230 1.6281879374 2.5012066296
H 0.0680119731 1.6395176226 4.7827207996
H 1.0559263586 0.2280070207 4.4288384270
C -2.4298897518 0.2647104522 4.8116005336
C -3.4552123106 -0.6509196766 5.0861429174
C -4.7782638967 -0.2300175906 5.2123181660
C -5.1163808026 1.1192939518 5.0510467773
C -6.5653392375 1.5672782027 5.2225444736
O -7.4695232511 0.5259483329 5.2512536147
C -6.7969055241 2.4112040440 6.4670714054
Cl -6.9734348258 2.6547665745 3.7093322549
C -4.0912206781 2.0397971758 4.8018475980
C -2.7672608956 1.6201004074 4.6878459299
H -3.2149924459 -1.7034575855 5.2103601347
H -5.5496064300 -0.9512733223 5.4607961816
H -7.4073981659 0.0195368870 4.4236087949
H -6.1547153680 3.2939728503 6.4746477554
H -7.8428661556 2.7220937179 6.5079595017
H -6.5724618984 1.8001588585 7.3479455978
H -4.3292898216 3.0911576545 4.6781773439
H -2.0024510254 2.3710020111 4.5136939366
C 0.0544051599 -5.8509589691 0.4512984448
C -0.6233958871 -7.0411240056 0.1690482317
C 0.0784242262 -8.2294091535 -0.0375370263
C 1.4750264040 -8.2582581163 0.0425098572
C 2.2018416769 -9.5750361505 -0.2421643996
O 1.4022300519 -10.6844788366 -0.0251242717
C 2.7142148775 -9.6613199424 -1.6751630899
Cl 3.6894454647 -9.6799128013 0.9024074389
C 2.1560301643 -7.0629184281 0.3131876713
C 1.4561868197 -5.8788763812 0.5168364281
H -1.7086930835 -7.0483036438 0.1081107792
H -0.4623646748 -9.1417667193 -0.2642267108
H 1.1277942557 -10.7021396269 0.9081108619
H 3.3922214726 -8.8351670342 -1.8993968785
H 3.2369918710 -10.6096178715 -1.8173169952
H 1.8586315041 -9.6212312634 -2.3581311081
H 3.2373827162 -7.0692106342 0.3939866366
H 2.0121083900 -4.9768953848 0.7604105608
O -1.9578871704 0.2763499747 -0.3259927698
C -2.5018830512 0.0105852100 -1.6510368827
S -3.0156111344 1.6152299303 -2.3483208813
C -3.7223667512 1.9578989891 -0.6680952189
C -2.6404239960 1.4291726280 0.2881897189
H -1.8825103406 2.1851976258 0.4831580207
H -3.0786343940 1.0922526364 1.2305574322
H -4.6176171084 1.3354808745 -0.5690751220
H -3.3951570866 -0.6080516833 -1.5120234451
O -0.1333568866 -0.5322613812 -2.0821786001
C -1.5127208021 -0.7846102353 -2.5138665197
O -1.6891273059 -0.4101847759 -3.8230971423
C -0.9104958746 -1.2203603466 -4.7709199298
C 0.5615483627 -1.0445278877 -4.3764940061
C 0.7831996386 -1.3392844767 -2.8944166402
H -1.0931984741 -0.7112211947 -5.7202413511
H -1.6792072941 -1.8607412477 -2.3844169759
H 1.7850619017 -1.0695460426 -2.5626977077
H 0.6082671728 -2.3932239819 -2.6615600528
H 1.2172140040 -1.6850966590 -4.9749709048
H 0.8455711600 -0.0079749981 -4.5838525943
C -1.4683628120 -2.6345606856 -4.8364391771
C -2.8489243747 -2.7939033358 -5.0188093266
C -3.4224236421 -4.0632497015 -5.0820427613
C -2.6329550016 -5.2114772742 -4.9488607519
C -3.2742828014 -6.5945610054 -5.0274981008
O -4.6537515000 -6.5681322425 -4.9897055017
C -2.8649539738 -7.3883229188 -6.2590034866
Cl -2.6632387502 -7.5480072472 -3.4948506433
C -1.2492766855 -5.0562107496 -4.8015241897
C -0.6748671460 -3.7877120189 -4.7500888720
H -3.4830559245 -1.9172887618 -5.1206269582
H -4.4886502911 -4.1606814085 -5.2568032267
H -4.9468665113 -6.1617187251 -4.1566601466
H -1.7809174678 -7.5007916039 -6.3173083913
H -3.3326824344 -8.3745322066 -6.2295345036
H -3.2166092877 -6.8548049314 -7.1486553466
H -0.6152362880 -5.9317533996 -4.7071888797
H 0.4046915012 -3.7168995272 -4.6553771562
C -4.1024038604 3.3985609413 -0.4088749067
C -5.3445103752 3.6797015203 0.1692417406
C -5.7163012340 4.9942396896 0.4538810191
C -4.8611755328 6.0602530665 0.1539825177
C -5.2907458162 7.4782606426 0.5380872222
O -6.6613301190 7.5992950295 0.6847052231
C -4.6548530495 7.9504302383 1.8405930711
Cl -4.7297489285 8.6493018666 -0.8247399882
C -3.6145854746 5.7784360488 -0.4227054328
C -3.2408609823 4.4677738258 -0.7001123218
H -6.0321609087 2.8722077479 0.4072214989
H -6.6769453650 5.1933471058 0.9160128366
H -7.0933264763 7.3895490996 -0.1614220649
H -3.5649724870 7.9315277076 1.7741094882
H -4.9887393704 8.9666010283 2.0615160584
H -4.9776682097 7.2866116662 2.6498219183
H -2.9433144658 6.5899131108 -0.6817001817
H -2.2835755316 4.2882424067 -1.1812859497
