151
# extracted from Terachem optimization
Fe -0.0352775833 0.0339950516 -0.0350785531
N 0.4882439327 2.0138190990 -0.1787921405
C 1.7418029224 2.3241276708 0.0561841726
N 2.0509081592 3.6057921558 -0.1107830679
C 0.8478218217 4.3991144839 -0.4278823749
C -0.1967012043 3.2513964465 -0.6128241575
H -1.0899584272 3.4113034784 -0.0092255953
H -0.5239685644 3.1429180701 -1.6515182546
H 1.0294552096 4.9429775333 -1.3582006130
H 2.9806402032 3.9924272761 -0.0181666521
N 2.1489594398 0.0490235695 0.3703225441
C 2.6785611957 1.2306225826 0.4480959536
S 4.2531524368 1.7137957453 0.9827960666
C 5.1603152083 0.0850137986 1.1614423960
C 4.4160660181 -1.0117387157 0.4032662676
C 2.9354503982 -1.1167929080 0.7886857619
H 5.1354486884 -0.1105564631 2.2355658011
H 4.5001227889 -0.8348438234 -0.6749650245
H 4.9069375360 -1.9649814337 0.6232815116
H 2.8347290949 -1.2183936820 1.8796597379
H 2.4671693304 -2.0029583415 0.3576071141
C 6.6531497417 0.3487567944 0.7307993826
N 6.6398578446 0.6094668742 -0.7156380321
N 7.2163427553 1.5430419069 1.3364642413
C 7.5698881376 -0.8259031837 1.1526793444
C 7.2566179635 -1.7192673324 2.0984264762
C 8.9182724238 -0.8536490644 0.4689206911
H 7.5080787456 1.0855533375 -0.9575728715
H 6.6453379202 -0.2664344030 -1.2345480482
H 6.8081464409 2.4129019188 1.0068737053
H 7.2817819838 1.5105594748 2.3481552087
H 7.9640672834 -2.4917753764 2.3853982189
H 6.3182718926 -1.7279523061 2.6451777592
H 8.8386691675 -1.1030172102 -0.5964962961
H 9.4061119422 0.1241786292 0.5408454022
H 9.5705078049 -1.5974426730 0.9323757917
C 0.5211618744 5.4342343995 0.7078687628
N 0.1639435696 4.6545754688 1.9196280259
N 1.6797982720 6.2343301170 1.0749023684
C -0.6017617460 6.3982243911 0.2809018063
C -1.2238762266 6.3317888541 -0.9030370477
C -0.9782100222 7.4496706686 1.3009708750
H 0.4380137835 5.2167165668 2.7257269769
H -0.8500022980 4.5762574734 1.9814460030
H 2.4591038627 5.6826196050 1.4225649288
H 1.9879577542 6.8673254487 0.3424953715
H -2.0117859852 7.0368579831 -1.1521524467
H -0.9809393254 5.6178171170 -1.6840767378
H -1.3080445336 7.0033148754 2.2473842610
H -0.1232003347 8.0888066743 1.5416539512
H -1.7895514588 8.0789996436 0.9276383732
N -0.2886451489 -2.0166179280 0.2372935447
C -0.5633345639 -2.3659942506 1.4708083829
N -0.8601830223 -3.6518874972 1.6477832982
C -0.6871046966 -4.4063204262 0.3926961786
C -0.4552169080 -3.2234802550 -0.6035976935
H 0.4302027505 -3.3771839942 -1.2232409624
H -1.3109528907 -3.0827085122 -1.2730477579
H -1.6167337979 -4.9396490884 0.1802678986
H -1.1352801093 -4.0661920101 2.5275520362
N -0.3714716433 -0.1119782436 2.1070095963
C -0.5480361472 -1.3235010079 2.5420535719
S -0.7208651489 -1.8964321922 4.1685064154
C -0.8898092558 -0.3217841141 5.1655500623
C -1.2246756342 0.8531279846 4.2505243010
C -0.2624858381 0.9949610702 3.0661879488
H 0.1001586129 -0.1893395596 5.6068049836
H -2.2474637436 0.7523570417 3.8716656499
H -1.1817211833 1.7660839308 4.8528774597
H 0.7778529935 1.0310631975 3.4220950332
H -0.4356664170 1.9252149114 2.5220747141
C -1.9250300439 -0.6208966425 6.3174427197
N -3.2339070667 -0.7967391864 5.6726266473
N -1.6644737547 -1.8695107573 7.0108631455
C -1.8857014650 0.4906987721 7.3940147034
C -0.8467478018 1.3137116251 7.5797969681
C -3.0871555143 0.5338984301 8.3103725629
H -3.8446095277 -1.2846255384 6.3269863899
H -3.6733775106 0.1042029264 5.4942530053
H -1.8189504024 -2.7033804428 6.4515326892
H -0.7832314910 -1.8986157042 7.5119344173
H -0.8527102446 2.0390473470 8.3881708433
H 0.0566926004 1.3051862950 6.9769623757
H -3.9948261164 0.8658399666 7.7910074128
H -3.2925621499 -0.4582166759 8.7269151646
H -2.9136815570 1.2232912300 9.1398571494
C 0.4821831189 -5.4465196473 0.5026003705
N 1.7345283048 -4.6717602484 0.6899822855
N 0.3558306337 -6.2931704693 1.6799474558
C 0.5379913486 -6.3667661109 -0.7309921669
C -0.3296305249 -6.2922654423 -1.7481044693
C 1.6515856764 -7.3898361027 -0.7302668704
H 2.3695050436 -5.2594102716 1.2306535509
H 2.1899293071 -4.5479434386 -0.2131748617
H 0.3681680074 -5.7751614967 2.5543735753
H -0.4453741060 -6.9169651711 1.6466338348
H -0.2471737423 -6.9668005685 -2.5953224881
H -1.1639515417 -5.5986233616 -1.7914299005
H 2.6413779665 -6.9212774453 -0.6644472647
H 1.5685878893 -8.0627222042 0.1291225760
H 1.6270277087 -7.9890961887 -1.6434651136
N -1.9821155613 0.3758065506 -0.6742309577
C -2.1857667111 0.2332866693 -1.9619808969
N -3.4557293730 0.3189298219 -2.3498743944
C -4.3233607158 0.7090159413 -1.2246806898
C -3.3030150923 0.5967412630 -0.0436409434
H -3.2828748712 1.4985436492 0.5724501191
H -3.5347283701 -0.2470891377 0.6155953286
H -5.1264048437 -0.0265489367 -1.1354478662
H -3.7724453749 0.2332919206 -3.3057408424
N 0.0749481208 -0.3114363810 -2.2174074455
C -1.0223942518 -0.0493997401 -2.8559751495
S -1.3282053519 0.0569856483 -4.5604438520
C 0.3055696809 -0.4655456208 -5.2970964383
C 1.0670484223 -1.3257415567 -4.2913635282
C 1.3063820644 -0.6250511682 -2.9493485223
H 0.8327419770 0.4741225383 -5.4753195368
H 0.5203583432 -2.2600030961 -4.1220788945
H 2.0366977184 -1.5831754122 -4.7296504800
H 1.8659154344 0.3101598395 -3.0930757647
H 1.9166841521 -1.2569914041 -2.2977306829
C -0.0159987413 -1.1392004963 -6.6838848693
N -0.7296255712 -2.3899718004 -6.3957741428
N -0.9278710265 -0.3563931258 -7.4994114330
C 1.2715801814 -1.3211983201 -7.5255396275
C 2.4031727139 -0.6365886054 -7.3210985160
C 1.1418805507 -2.2885642431 -8.6800838065
H -1.1982320828 -2.6902069942 -7.2496478080
H -0.0762504273 -3.1326980845 -6.1546794493
H -1.8813496810 -0.3174248136 -7.1506951792
H -0.5780388691 0.5572332414 -7.7664835369
H 3.2582404064 -0.7695749157 -7.9774637960
H 2.5401316712 0.0930532519 -6.5282239731
H 1.0160764430 -3.3239771798 -8.3404381648
H 0.2719954301 -2.0388178074 -9.2970570238
H 2.0312727000 -2.2565041082 -9.3138124452
C -4.9568359575 2.1266456165 -1.4629634626
N -3.8347727366 3.0904350239 -1.5482273871
N -5.6458645067 2.2110386180 -2.7412961078
C -5.9742902856 2.4848732096 -0.3640202860
C -6.3362752386 1.6428693651 0.6117807102
C -6.5694394737 3.8717993912 -0.4601773936
H -4.1554910295 3.8726732830 -2.1189016169
H -3.6513846842 3.4873030803 -0.6280279974
H -5.0422674656 2.0642395528 -3.5452571238
H -6.4761318556 1.6290811108 -2.7991720123
H -7.0692002740 1.9404956069 1.3560444989
H -5.9604573059 0.6293583511 0.7150549197
H -5.8127380242 4.6535041587 -0.3160509827
H -7.0126468504 4.0391606847 -1.4467093051
H -7.3421542268 4.0157159951 0.2985640611
