127
# extracted from Terachem optimization
Mn 0.1032541721 -0.0501011881 -0.1418731524
O 0.1429259384 2.2019654698 0.5198572825
C 1.4553895839 2.8217533768 0.4345247272
N 1.5270577406 3.7677389601 1.5095627058
C 0.1670315345 4.3032313154 1.6425788356
C -0.7495823099 3.2832118644 0.8694168970
H -1.5536683459 2.8644481421 1.4752306093
H -1.1771957436 3.7329593592 -0.0308334585
H 0.0731594900 5.2930399392 1.1900868371
H 1.7499865558 3.2909557222 2.3878244491
H 1.5041743118 3.3476146426 -0.5310723698
N 2.2088669246 0.5349302591 0.1348219056
C 2.5255382970 1.7494077542 0.4824421601
N 3.7405728387 2.1707747707 0.8745292452
C 4.9362268932 1.3330802462 0.7797785317
C 4.6626450515 0.1898650947 -0.2145437038
C 3.3082509149 -0.4472972792 0.1207320848
H 5.1713020027 0.8986740520 1.7601097893
H 4.6376215143 0.5876359477 -1.2370553887
H 5.4654232991 -0.5452952568 -0.1528408041
H 3.9141579860 3.1735857178 0.9103513792
H 3.3574571550 -0.9455422674 1.0986602274
H 3.0634735866 -1.2217653495 -0.6135213423
C 6.1093366531 2.2520638639 0.3955604124
O 5.9000789649 3.4201437525 0.1299598904
C 7.5315628951 1.7008795190 0.4126318729
O 7.4787877336 0.3439716919 0.8407268607
C 8.2055815628 1.8752381266 -0.9532751005
H 8.0658585506 2.3170376506 1.1537218702
H 8.3876480641 0.0176100006 0.9316711550
H 8.1741171248 2.9242136776 -1.2598188304
H 9.2544735526 1.5653101053 -0.8952842586
H 7.7079225665 1.2636058036 -1.7129712399
C -0.2190931755 4.3634568693 3.1268944102
O 0.3778208426 3.6917855617 3.9462635966
C -1.3646082954 5.2974819584 3.5049889839
O -2.2513313296 5.3093604261 2.3828393877
C -2.0533342022 4.9066738629 4.8073624826
H -0.8925267123 6.2891359379 3.6211361966
H -2.8049218921 6.1042403635 2.4291485259
H -1.3302038630 4.8597150518 5.6255823828
H -2.8200599446 5.6446737792 5.0635776072
H -2.5329167466 3.9280787272 4.7064596149
O 0.0507657903 -2.3541957365 -0.1720825064
C -0.6509282797 -2.9288762231 0.9707107935
N -0.1610973816 -4.2622444399 1.1181549992
C 0.0665844051 -4.7388455454 -0.2490620355
C 0.1833828913 -3.4339626434 -1.1229978358
H 1.1466156276 -3.3182984971 -1.6213086267
H -0.6157202727 -3.3875771484 -1.8683662412
H -0.7701529109 -5.3435292442 -0.6080663707
H 0.7447846757 -4.2724037868 1.5961934566
H -1.7201371612 -2.9431212882 0.7125934156
N -0.1955200157 -0.7692394163 1.9455359376
C -0.4157566235 -2.0327505683 2.1680884814
N -0.4524933569 -2.6364766546 3.3697654318
C -0.3790707817 -1.8908548759 4.6253456783
C -0.7818007874 -0.4298963731 4.3547267515
C -0.0036591834 0.0772280415 3.1359512896
H 0.6472897215 -1.9048944202 5.0131536705
H -1.8589003830 -0.3783396817 4.1511383940
H -0.5642506803 0.1792186479 5.2328734939
H -0.8512208875 -3.5708184240 3.4309014595
H 1.0687147546 0.1244061041 3.3722352206
H -0.3082051864 1.0924565997 2.8783124111
C -1.2635192460 -2.6137018013 5.6526427932
O -1.9804161485 -3.5320293590 5.3044917456
C -1.1795912753 -2.1982004737 7.1201097067
O -0.2067002964 -1.1637435831 7.2263194569
C -2.5537973548 -1.7888684589 7.6603742556
H -0.8405726332 -3.1014048256 7.6527622416
H -0.0818991471 -0.9579024257 8.1659621961
H -3.2771720128 -2.5940178361 7.5055860188
H -2.4897206879 -1.5874366822 8.7350735221
H -2.9124094039 -0.8826112105 7.1613097143
C 1.3618983649 -5.5618183127 -0.2943552227
O 2.1746570139 -5.4790966191 0.6045435735
C 1.5562966342 -6.4770299327 -1.4988175445
O 0.8523030929 -5.8621711270 -2.5800427304
C 3.0254401599 -6.7422922457 -1.8104909846
H 1.0626116030 -7.4246654760 -1.2171694085
H 0.7816449799 -6.5049369917 -3.3029680258
H 3.5367710440 -7.1416605343 -0.9310605288
H 3.1151407553 -7.4695026404 -2.6239953845
H 3.5234580227 -5.8164416683 -2.1148302117
O -2.1812973949 0.0171787618 -0.4896065580
C -2.5665404373 0.0176025586 -1.8873505240
N -3.5734716659 1.0266041085 -2.0461915055
C -4.3127890414 1.0534983551 -0.7821581698
C -3.3709499100 0.3474557089 0.2603948676
H -3.0726765904 0.9865210170 1.0914653384
H -3.8306573773 -0.5626666509 0.6543418019
H -5.2529169287 0.5003028342 -0.8558611896
H -3.1508516367 1.9499680185 -2.1743956639
H -2.9920342811 -0.9744180951 -2.1029111308
N -0.1562923369 0.2090075182 -2.2807024657
C -1.3592310523 0.2549829720 -2.7800695493
N -1.6671978483 0.5035320160 -4.0648162998
C -0.6634904100 0.5706044851 -5.1258299111
C 0.6165346642 -0.1304381450 -4.6361873585
C 0.9567229732 0.3835424826 -3.2331647613
H -0.4268785680 1.6167276402 -5.3580802923
H 0.4532093769 -1.2148414470 -4.5984926355
H 1.4313133044 0.0711578012 -5.3327951958
H -2.6208819122 0.3331215099 -4.3752909297
H 1.2239055350 1.4483235689 -3.2775709882
H 1.8286632316 -0.1434767991 -2.8338898968
C -1.2837664986 -0.0487726603 -6.3900467837
O -2.3730090724 -0.5856795406 -6.3293613791
C -0.5459400885 0.0783097123 -7.7199448935
O 0.6491349558 0.8183436317 -7.4927388942
C -0.2942893662 -1.2975721929 -8.3468677246
H -1.2314147165 0.6448303501 -8.3707143539
H 1.0676620325 0.9938643902 -8.3500585286
H -1.2353121943 -1.8455937839 -8.4455379346
H 0.1416055924 -1.1800357702 -9.3446319387
H 0.4001454116 -1.8824051549 -7.7348215276
C -4.5925633321 2.5122219905 -0.3882148059
O -3.9504785671 3.4148855891 -0.8898263526
C -5.6975252968 2.7553904746 0.6326986266
O -5.6684165330 1.6302151007 1.5132702809
C -5.5574351363 4.0913980433 1.3544135291
H -6.6336131557 2.7507157862 0.0456321198
H -6.4988853734 1.6082424200 2.0139402193
H -5.5764993357 4.9138234609 0.6340729836
H -6.3887527223 4.2269459219 2.0541295641
H -4.6149824652 4.1356260885 1.9089871658
