127
# extracted from Terachem optimization
Mn -0.2497934211 -0.2615614392 -0.1452500334
N -0.1391215054 1.7464343820 -0.4892887838
C 1.0825684255 2.1855256311 -0.7026259195
C 1.3066723279 3.6468673940 -0.9942982574
C 0.3624350008 4.5486914829 -0.1766264618
C -1.0228567052 3.9704547593 -0.2218398135
C -1.2194958822 2.6473726828 -0.4012270173
H 0.6724890582 4.5568369491 0.8834356845
H 1.1125522309 3.7916971363 -2.0716170561
H 2.3471273786 3.9281651421 -0.8257696360
H -2.1939921999 2.1787885395 -0.3907461060
H -1.8644053640 4.6348940956 -0.0368998244
N 1.7797847182 -0.0597333852 -0.4609938609
C 2.1486458256 1.1786666096 -0.7006933168
C 3.5861797049 1.4831692778 -1.0415108007
C 4.5765250541 0.5672856426 -0.2966768186
C 4.0545479221 -0.8418285083 -0.3480043538
C 2.7336880986 -1.0960229265 -0.4481512888
H 4.6346101028 0.8628205392 0.7653871362
H 3.6927017912 1.3281006428 -2.1303398826
H 3.8204879430 2.5330161110 -0.8578362527
H 2.3172468000 -2.0947088718 -0.4633610043
H 4.7645025528 -1.6580971262 -0.2563702453
C 6.0074254823 0.7049635096 -0.8734279811
C 7.1119169462 0.2473574634 0.0973220042
N 7.1238547683 1.0932484255 1.2844771123
O 6.8850313260 -1.0974644396 0.5136013588
H 6.0932113725 0.1252281424 -1.7993239363
H 6.1914607547 1.7534110719 -1.1433099160
H 8.0639017753 0.2468421848 -0.4532503047
H 7.9576188652 0.8888238260 1.8370315626
H 7.1993554226 2.0774085466 1.0294860694
H 6.6714776918 -1.0548080958 1.4612482055
C 0.4737543703 6.0214902745 -0.6293830621
C -0.1520177814 7.0325554643 0.3602094912
N -1.6106162186 7.0213143082 0.2642664746
O 0.2189893471 6.7146962496 1.6928313131
H 1.5401656533 6.2615534762 -0.7053165847
H 0.0478338443 6.1556697440 -1.6324071450
H 0.2887738544 8.0177233170 0.1520365771
H -1.9878999568 7.7828883299 0.8308444272
H -1.9067184954 7.2191593571 -0.6917174939
H -0.5704930932 6.3373279835 2.1164709289
N -0.1286746441 -2.1475055316 0.5825437076
C 0.0313179081 -2.2865153762 1.8812247685
C 0.0256128820 -3.6759392535 2.4712548059
C 0.6976360184 -4.7185394167 1.5577750404
C 0.2180617792 -4.4992039587 0.1516718506
C -0.1953160167 -3.2849659124 -0.2578921585
H 1.7918959666 -4.5748814729 1.5640765416
H -1.0362608602 -3.9471979280 2.6114261984
H 0.4777343492 -3.6866491600 3.4633052032
H -0.5246797614 -3.0812928594 -1.2673319753
H 0.2587272859 -5.3331862137 -0.5456705293
N -0.0198694484 0.0700425633 2.0939510797
C 0.1246326557 -1.0722229380 2.7136041900
C 0.2666844342 -1.1211093051 4.2186441662
C 1.0104070828 0.1050998883 4.7864474603
C 0.5496626066 1.3379804446 4.0636851494
C 0.0486493647 1.2713658560 2.8111814863
H 2.0952394749 0.0010808821 4.6091753266
H -0.7558595231 -1.1502614829 4.6348372688
H 0.7564652544 -2.0381627170 4.5498706917
H -0.2680543786 2.1512607865 2.2637508164
H 0.6759921170 2.2951645443 4.5604734100
C 0.8193982576 0.2066108777 6.3209514987
C 1.9079112805 1.0307724179 7.0351064288
N 3.2024916624 0.3739198041 6.9073978051
O 2.0194086104 2.3338955106 6.4675237062
H -0.1581972214 0.6489041005 6.5441509484
H 0.8084209968 -0.8034271120 6.7523476935
H 1.5862904718 1.1784289418 8.0762740871
H 3.8801028480 0.8402035737 7.5117707536
H 3.1585617633 -0.5909916274 7.2331133064
H 2.8566626006 2.3351330915 5.9723919416
C 0.4800916377 -6.1460372945 2.1068403851
C 1.3773775413 -7.2235617388 1.4535341849
N 0.9207863474 -7.5359012910 0.1002503812
O 2.7224795817 -6.7788326527 1.3888540026
H 0.7283634318 -6.1284583462 3.1739813635
H -0.5766982092 -6.4353288236 2.0324029861
H 1.3840426917 -8.0968952101 2.1212798672
H 1.4602608883 -8.3258218536 -0.2580301273
H -0.0494139135 -7.8514137841 0.1152531900
H 2.8876616639 -6.5271711067 0.4644859836
N -2.2721489696 -0.4605158645 -0.3224110297
C -2.7527811811 -0.7073853516 -1.5223122303
C -4.2337270022 -0.9539149425 -1.6784166192
C -5.0852174090 -0.0846851357 -0.7346307623
C -4.4630555693 -0.1077683912 0.6328909140
C -3.1418825017 -0.3156329763 0.7852724237
H -5.0771441305 0.9635530664 -1.0801276961
H -4.3991846728 -2.0203936053 -1.4425738579
H -4.5489745584 -0.8165929593 -2.7130473254
H -2.6406430015 -0.2956332937 1.7435909348
H -5.0943576380 0.1047003395 1.4930593313
N -0.5379004784 -0.7189373661 -2.3602267164
C -1.8092427453 -0.8094201447 -2.6534157048
C -2.2513300325 -1.1064035343 -4.0699260444
C -1.3159952453 -0.4745987809 -5.1208213640
C 0.1074935760 -0.6688224582 -4.6821278026
C 0.4229628287 -0.8060560412 -3.3760132602
H -1.5018439697 0.6124059947 -5.1805652099
H -2.2421051385 -2.2047074555 -4.1864522936
H -3.2799097410 -0.7898858077 -4.2509428328
H 1.4449185026 -0.9222996843 -3.0350276907
H 0.8858210464 -0.6483992890 -5.4385937281
C -1.5892578733 -1.0442672462 -6.5362617534
C -1.1127783680 -0.1244889430 -7.6770668400
N -1.8542564696 1.1300084827 -7.6570074544
O 0.2727547511 0.1827428882 -7.5369640038
H -1.1003977089 -2.0187837519 -6.6442730076
H -2.6666374099 -1.2208613485 -6.6556841881
H -1.2097837172 -0.6808328421 -8.6204790095
H -1.6544897796 1.6566529746 -8.5082394581
H -2.8594387826 0.9613337975 -7.6651076961
H 0.3110480088 1.1196776457 -7.2792030175
C -6.5691127258 -0.5083350000 -0.7854000638
C -7.5397464091 0.5010559213 -0.1267541611
N -7.4816749600 0.4056274024 1.3310425306
O -7.2158381743 1.8297296564 -0.5046920882
H -6.8524775978 -0.5872004704 -1.8410001291
H -6.7043052760 -1.5062661876 -0.3474831486
H -8.5428980429 0.3122257833 -0.5338727393
H -8.2177960815 0.9891534185 1.7319732846
H -7.6876095681 -0.5458622675 1.6358060034
H -6.7601090639 2.2255728752 0.2574886299
