106
# extracted from Terachem optimization
Mn -0.0084109369 -0.1533982557 -0.0816630718
O 0.2005396510 1.8922821659 -0.2836790031
C 1.5545097841 2.2787264789 -0.6956866138
N 1.7115694449 3.5964187071 -0.1118868813
C 0.4117069780 4.0956345941 0.1044911091
C -0.4765235737 3.0963278944 0.0439961260
H -1.5397830231 3.0127919786 0.1890963605
H 2.3202944819 4.2587497068 -0.5866627409
H 1.5625247861 2.2891899515 -1.8009658912
N 2.0200562909 0.0033282284 0.0571958542
C 2.5263227916 1.2394599228 -0.1728051489
C 3.8664550370 1.5378220998 0.0204375366
C 4.7435240910 0.5415010657 0.4641902443
C 4.2143016691 -0.7279812567 0.7159089273
C 2.8569085589 -0.9527098682 0.5103913630
H 4.2621318608 2.5320894894 -0.1581490871
H 2.4107031552 -1.9174805988 0.7197548892
H 4.8323623279 -1.5428583998 1.0751657366
C 6.2118935509 0.9242087456 0.6341828170
O 6.5319712126 2.0603485392 0.3407866571
C 7.1956703869 -0.0851728133 1.1833763002
C 7.1509917834 -0.1399122824 2.7265963602
H 7.0078889091 -1.0804740949 0.7626664040
H 8.1883199877 0.2332185348 0.8546648023
H 6.1722726653 -0.4582413609 3.1033699395
H 7.8984268953 -0.8499128276 3.0912476636
H 7.3791259447 0.8415948392 3.1524209901
C 0.2572099862 5.5726308085 0.2930210979
O 1.2479537870 6.2526320459 0.0919979555
C -1.0909484762 6.1277543431 0.6998123401
C -1.1243669280 7.6557660643 0.7420390568
H -1.8469831044 5.7351231083 0.0036304796
H -1.3421926405 5.7013196346 1.6831033417
H -0.8994114403 8.0806293558 -0.2399833696
H -2.1152330207 8.0017894728 1.0485283447
H -0.3872110113 8.0450690281 1.4489644512
O -0.2730844589 -2.1838134539 0.1439539193
C -0.5784491715 -2.6183593834 1.5077273661
N 0.4621565908 -3.6068581391 1.7456184770
C 0.7279257344 -4.1700193018 0.4799811856
C 0.3350531267 -3.3132530806 -0.4719155031
H 0.4049721206 -3.2920349063 -1.5459483675
H 0.3087157184 -4.2950629822 2.4794135842
H -1.5896651001 -3.0624780576 1.4779507725
N -0.2524583535 -0.2239994778 1.9430522763
C -0.5398379771 -1.4416663141 2.4581711446
C -0.7835723436 -1.6328612160 3.8110325024
C -0.7020792707 -0.5501402757 4.6928888458
C -0.3783483715 0.7019951202 4.1593800965
C -0.1656466296 0.8215716039 2.7902040579
H -1.0373644575 -2.6081357495 4.2159486011
H 0.0827884582 1.7756352016 2.3394170304
H -0.2894089943 1.5824920355 4.7853757589
C -0.9871245464 -0.8256880456 6.1686108926
O -1.3100837340 -1.9583286742 6.4717602149
C -0.8247721459 0.2795000814 7.1875483683
C 0.6505412407 0.4398181021 7.6184130350
H -1.2109837418 1.2291876836 6.7978166795
H -1.4332352729 0.0023327605 8.0523923386
H 1.3008554697 0.7158435528 6.7804851059
H 0.7284863896 1.2234383147 8.3769296997
H 1.0276855876 -0.4912136166 8.0514468855
C 1.3474834104 -5.5334317387 0.4241227308
O 1.4903254174 -6.1095694810 1.4876635071
C 1.7352648584 -6.1094641396 -0.9203005713
C 2.2795056765 -7.5352884378 -0.8318203103
H 0.8518676528 -6.0651896774 -1.5747764675
H 2.4742410829 -5.4326521674 -1.3763268032
H 1.5402769960 -8.2112931201 -0.3939268011
H 2.5331987790 -7.9018312082 -1.8301750428
H 3.1776561760 -7.5775998756 -0.2098386178
O -2.1023903700 -0.1060610445 -0.3275601957
C -2.5220681021 -0.1435152288 -1.7284640518
N -3.1768577342 1.1462260751 -1.8812115740
C -3.7306893060 1.4209838446 -0.6152209926
C -3.0694204819 0.7121559558 0.3121265872
H -3.1071008317 0.6585538280 1.3871575875
H -3.8268717434 1.2642995002 -2.6547608187
H -3.2271272082 -0.9899222658 -1.8180021231
N -0.0943012817 -0.3641022654 -2.1312068653
C -1.3434689506 -0.3578762125 -2.6532498288
C -1.5791334839 -0.5487673515 -4.0089024515
C -0.5062902410 -0.7276805565 -4.8873208413
C 0.7836411582 -0.7299826775 -4.3451788062
C 0.9413653571 -0.5533317630 -2.9751986330
H -2.5854986585 -0.5653167469 -4.4178184520
H 1.9222799784 -0.5636039554 -2.5145592634
H 1.6623222988 -0.8710517945 -4.9643890587
C -0.8357504400 -0.9226036648 -6.3674309536
O -2.0110976229 -0.9458603346 -6.6771792639
C 0.2826467809 -1.0296618158 -7.3794686131
C 0.8300444270 0.3618679895 -7.7674912397
H 1.0924446502 -1.6633969550 -6.9974219324
H -0.1369087584 -1.5210514459 -8.2610096718
H 1.2616969769 0.8930055563 -6.9114710897
H 1.6124584472 0.2517660273 -8.5235009315
H 0.0355551496 0.9837450845 -8.1901200748
C -4.8850720538 2.3717027964 -0.5300493616
O -5.3220043263 2.7961565651 -1.5846876302
C -5.4460602480 2.7283538806 0.8308278888
C -6.6352116928 3.6866202551 0.7586939504
H -5.7265858008 1.7916220963 1.3351379690
H -4.6303211829 3.1543789414 1.4350633777
H -7.4559412411 3.2492854700 0.1842964428
H -6.9994286112 3.9092688026 1.7652757009
H -6.3561981934 4.6266005196 0.2749344585
