139
# extracted from Terachem optimization
Mn 0.0207884040 0.3346081788 0.2430103858
N 0.0411805224 2.5942817167 0.6717162628
C 1.2213263994 3.1272648794 0.7416020774
N 1.5083185848 4.4544892182 0.7176268541
C 0.4619504399 5.4554366435 0.5148938914
C -0.7151086212 4.8074728875 -0.2387462501
C -1.0959132092 3.4924415417 0.4550231971
H 0.1058953163 5.8085136885 1.4920121714
H -0.4166530596 4.6054773594 -1.2745572933
H -1.5807643980 5.4750435528 -0.2579365814
H 2.4033845887 4.7668570841 0.3335983340
H -1.5660021650 3.7030483741 1.4259709369
H -1.8365583081 2.9489685269 -0.1399968085
N 2.1873442958 0.9476510052 0.5268469461
C 2.3800562115 2.1762123244 0.9047505355
N 3.5111569930 2.6627179172 1.4553180773
C 4.7718225259 1.9218376443 1.4659136138
C 4.6730618451 0.7575596824 0.4674084623
C 3.3308265122 0.0408868885 0.6719057857
H 4.9482970904 1.5004526140 2.4646807271
H 4.7247017124 1.1376983055 -0.5602918101
H 5.5107895024 0.0771045068 0.6281897523
H 3.6077124919 3.6612045002 1.6083145681
H 3.3026409780 -0.4245824514 1.6683838632
H 3.2134582490 -0.7680043001 -0.0554446288
C 5.9031408322 2.9400732415 1.2114915926
O 5.6208232626 4.1124005611 1.0435772324
C 7.3593102311 2.4689332183 1.2145408770
N 7.5027155255 1.2083461134 1.9520279556
C 7.8400838780 2.3081661189 -0.2393890110
H 7.9243595575 3.3034450425 1.6563588977
H 8.3513535135 0.7291889651 1.6564237334
H 7.6173736644 1.3895988226 2.9480330964
H 7.6698017767 3.2297991746 -0.8017798617
H 8.9148095448 2.0972557450 -0.2485906006
H 7.3248529353 1.4822347220 -0.7409636360
C 1.1205761353 6.6548631976 -0.2082065616
O 2.2718868287 6.5312027752 -0.5938972876
C 0.3365019400 7.9459237540 -0.4756490699
N -0.3767517122 7.8658610688 -1.7553959000
C -0.6164594813 8.3688555994 0.6422642416
H 1.1087403363 8.7131206974 -0.5955534746
H -1.1167624112 7.1687792567 -1.7492303851
H 0.2566757671 7.6663418910 -2.5259582129
H -0.0902137964 8.4763201164 1.5969357281
H -1.0581546618 9.3343498320 0.3823429382
H -1.4404821940 7.6581575716 0.7830775466
N 0.4481533575 -1.9141344583 0.3056978447
C 0.3037835925 -2.4744466732 1.4677133275
N 0.4334373609 -3.7977578419 1.7284864342
C 0.6487390326 -4.7818895278 0.6732624419
C 0.1077755046 -4.2129636134 -0.6512451392
C 0.6695133804 -2.7953310759 -0.8446266360
H 1.7269198818 -4.9644800249 0.5590143943
H -0.9877499339 -4.1788276158 -0.6146974448
H 0.4006712923 -4.8398530866 -1.4976223050
H -0.0238908285 -4.2017850517 2.5443588949
H 1.7487412015 -2.8517548778 -1.0478545278
H 0.2139940767 -2.3187823959 -1.7177865603
N -0.3521617005 -0.3455481134 2.3613445245
C -0.0136719803 -1.5710444750 2.6379517706
N 0.0785087607 -2.1001464010 3.8748362073
C -0.4936449573 -1.4492618924 5.0673936116
C -1.3127258465 -0.2274897559 4.6509826602
C -0.6004275208 0.5214317921 3.5197098959
H 0.3352927530 -1.1373805726 5.7189584191
H -2.3047694917 -0.5503324587 4.3189458386
H -1.4663079903 0.4247443411 5.5148102358
H 0.3634746493 -3.0720008228 4.0405596439
H 0.3595100951 0.9271408817 3.8728983369
H -1.1986115455 1.3729084350 3.1857684193
C -1.3379737525 -2.4882003196 5.8605091867
O -2.4952984995 -2.2505785381 6.1295007507
C -0.6693826725 -3.7872988425 6.3554576905
N -0.0914675794 -4.5421718356 5.2145416093
C 0.4243250074 -3.4732024629 7.3858917589
H -1.4732272855 -4.3448097209 6.8521177407
H 0.6146098323 -5.1932781265 5.5573187655
H -0.8076874401 -5.1184506282 4.7717781831
H 0.0326057064 -2.8477250761 8.1937434553
H 0.7887151761 -4.4035044807 7.8353583497
H 1.2772686743 -2.9622922024 6.9256735136
C 0.0235867910 -6.1101862578 1.1633691571
O -0.5806883087 -6.1086627256 2.2263283166
C 0.1451264325 -7.3948599512 0.3358303230
N -0.9316778983 -7.4850069188 -0.6547053784
C 1.5038226398 -7.6027772155 -0.3347550408
H -0.0239995962 -8.2012702370 1.0572537518
H -0.8594928852 -6.7861356288 -1.3890189501
H -1.8522762663 -7.4281140334 -0.2267952664
H 2.3206506430 -7.5681604870 0.3941352866
H 1.5118089374 -8.5846223334 -0.8150324479
H 1.7050207077 -6.8557076686 -1.1124514552
N -2.1777428919 0.1714826849 -0.4292057651
C -2.3902574532 0.2268677768 -1.7077116569
N -3.5792992075 0.0179964760 -2.3232621279
C -4.7647332318 -0.4294615375 -1.5980570249
C -4.3206107534 -1.1278809624 -0.2984841653
C -3.2975969500 -0.2363474556 0.4220591295
H -5.3781038605 0.4436987514 -1.3316926809
H -3.8643535774 -2.0959555270 -0.5380974157
H -5.1749835918 -1.3068379008 0.3592733406
H -3.6000895248 -0.2580584050 -3.3032570033
H -3.7965821021 0.6646056555 0.8071600130
H -2.8798479224 -0.7541683515 1.2901688964
N -0.0402614235 0.5988077605 -2.0021581001
C -1.2057235175 0.5712350026 -2.5795628503
N -1.4280932814 0.8279680472 -3.8852122058
C -0.3688489227 0.7229096699 -4.9107619040
C 0.9632451018 0.3502335967 -4.2556900303
C 1.0703263694 1.0002202852 -2.8712334139
H -0.2881018283 1.6955604403 -5.4134335085
H 1.0249320039 -0.7380980768 -4.1609868517
H 1.7914712907 0.6608491555 -4.8988700692
H -2.3691828121 0.8331934446 -4.2948913860
H 1.0727824741 2.0973779676 -2.9673551184
H 2.0023759135 0.7225021936 -2.3737711236
C -0.8269778660 -0.3302315787 -5.9658372988
O -0.1734937102 -1.3337985774 -6.1560256049
C -2.1019261499 -0.0611927016 -6.7903578137
N -3.2605599552 0.2057570613 -5.8991086840
C -1.8809653231 1.1183860338 -7.7481232307
H -2.2476430926 -0.9722309871 -7.3832806097
H -3.9430579989 0.7867890089 -6.3848794902
H -3.7439218327 -0.6646433268 -5.6761678215
H -0.9808393077 0.9696708740 -8.3521363843
H -2.7308395835 1.2004479312 -8.4343569029
H -1.7874380553 2.0670763333 -7.2076335873
C -5.6070514698 -1.2737416173 -2.5847110989
O -5.1625343394 -1.4711926885 -3.7070484364
C -6.9535066081 -1.8727404830 -2.1627438794
N -6.7539945764 -3.1752182249 -1.5184651460
C -7.8211766131 -0.9689806636 -1.2860589733
H -7.4776641551 -2.0645990614 -3.1048564625
H -6.2642386544 -3.1047184248 -0.6309233744
H -6.2575822255 -3.8260095775 -2.1220540288
H -8.0224847537 -0.0099253393 -1.7753933283
H -8.7751715467 -1.4703231481 -1.1037920423
H -7.3640324801 -0.7674649336 -0.3098923489
