97
# extracted from Terachem optimization
Mn 0.0774653504 -0.0430893213 0.1085980521
N 0.4008410799 2.1388495983 0.0753793003
C 0.4649193678 2.7759592107 -1.0549902411
S 0.7654405094 4.4459154114 -1.4021091027
C 1.2977245567 5.1124682171 0.2443470815
C 0.9223225153 4.1862666668 1.3640436781
C 0.5557779323 2.9020578926 1.2653780702
H 2.3874444703 5.2465769125 0.2120874992
H 0.2713352390 2.2120169108 -1.9607102485
H 0.3420870021 2.3363413784 2.1584393565
H 0.9826224032 4.6306736450 2.3541069641
C 0.6847970512 6.5274371011 0.3913076723
O 0.9301872166 7.3106017141 -0.7462365717
O 1.2613104634 7.0510075102 1.5550403618
H -0.4082612495 6.4571060523 0.4571630922
H 1.8748466656 7.5496953047 -0.7459915856
H 0.8427155322 7.9075064336 1.7476027907
N 2.2523619578 -0.3210825753 0.1528548196
C 2.8300403477 -1.2804627502 -0.5021740280
S 4.5045651627 -1.6796158705 -0.6838968860
C 5.3302689916 -0.5518516627 0.5378988938
C 4.4034582158 0.5225378761 1.0287537150
C 3.0778510036 0.5973987156 0.8586953882
H 5.6678543708 -1.1728652522 1.3788020161
H 2.2062361176 -1.9525683084 -1.0817388512
H 2.5341722879 1.4224520312 1.2965665981
H 4.8934971420 1.3076456347 1.5985764844
C 6.6120816992 0.0063280361 -0.1286439318
O 7.3709808497 -1.0155474644 -0.7169692806
O 7.2880929794 0.6723443640 0.9016800792
H 6.3445502549 0.6729628160 -0.9584316065
H 7.7707453980 -1.5427700040 -0.0015081366
H 8.0693256462 1.1110813533 0.5234091153
N -0.2568979574 -2.2284243486 0.0812659764
C -0.1440616887 -2.9352103950 -1.0033575744
S -0.4096208947 -4.6262071885 -1.2809591910
C -1.3289620649 -5.1217576901 0.2513105484
C -1.0279682020 -4.1829362525 1.3837271216
C -0.5835240255 -2.9239838004 1.2787652662
H -2.4024125288 -5.1163617062 0.0173797463
H 0.1975295920 -2.4289948609 -1.8993299440
H -0.4251496029 -2.3359257203 2.1688288270
H -1.2224342875 -4.5813474425 2.3759007131
C -0.9531441554 -6.5897556461 0.5646094190
O -1.0994526448 -7.4100613656 -0.5632977361
O -1.7945180223 -6.9552984036 1.6231151501
H 0.1100223862 -6.6568827246 0.8278684582
H -2.0523845228 -7.5139091084 -0.7379964783
H -1.5393083713 -7.8440859191 1.9244276766
N -2.1271327704 0.3325941999 0.0232268583
C -2.6115301002 1.3886105822 -0.5585787871
S -4.2513590430 1.9086985970 -0.7635133401
C -5.1580837803 0.8000390679 0.4140925591
C -4.3704041239 -0.4441019783 0.7101448917
C -3.0509924429 -0.6146160891 0.5504642658
H -5.3406100867 1.3670988097 1.3372450920
H -1.9186726279 2.0654790228 -1.0472044663
H -2.6005727071 -1.5537194102 0.8421462791
H -4.9520025277 -1.2647090485 1.1222293112
C -6.5468313601 0.5129955398 -0.2062780517
O -7.1721904068 1.6948928423 -0.6284123431
O -7.2542223967 -0.1593575806 0.7980185050
H -6.4331469266 -0.0877558801 -1.1176150300
H -7.4419045303 2.1910443728 0.1656699175
H -8.1092876639 -0.4453365864 0.4333467606
N 0.0453137687 -0.0454723743 2.2658502309
C -0.9907167270 0.3893255068 2.9196057980
S -1.2869598773 0.4435985934 4.6269623872
C 0.4150534556 0.1611215982 5.3115613076
C 1.2820281227 -0.5761722769 4.3309606626
C 1.1086910712 -0.6335857392 3.0050572114
H 0.8482109340 1.1417937359 5.5514247313
H -1.8280074546 0.7625879200 2.3394476388
H 1.8091300522 -1.1776067723 2.3871083088
H 2.1405245252 -1.0793440208 4.7677015356
C 0.2534158824 -0.5917304647 6.6539189879
O -0.7019022911 0.0176591494 7.4790489229
O 1.5382848192 -0.6025448672 7.2123797391
H -0.1344954262 -1.6018192937 6.4701607840
H -0.3232368669 0.8519674661 7.8106975741
H 1.5215070115 -1.1547408239 8.0128626704
N 0.0715281923 -0.0843059849 -2.1258657829
C -1.0011802169 -0.3987130734 -2.7903565396
S -1.2665592079 -0.5729413861 -4.4919505697
C 0.4526506205 -0.4655805432 -5.1902896726
C 1.4370737235 0.0613285283 -4.1861221950
C 1.2539333599 0.2056540604 -2.8672374829
H 0.7442558976 -1.4753242084 -5.5092788715
H -1.9062718554 -0.5783091216 -2.2185407648
H 2.0603669509 0.5816321072 -2.2526719630
H 2.4012457485 0.3343166863 -4.6064662724
C 0.3770232793 0.3942926850 -6.4773268439
O -0.6155385236 -0.0732027286 -7.3489576525
O 1.6640225672 0.3333465619 -7.0266301209
H 0.0736626663 1.4183725142 -6.2250106567
H -0.3079809355 -0.9157243290 -7.7301865309
H 1.6938834050 0.9157114729 -7.8050969912
