91
# extracted from Terachem optimization
Mn -0.0753099958 -0.0146205760 -0.2412422184
N 0.0879199564 2.2383449247 0.1839492129
C 1.3457684263 2.6240272882 0.3365792557
S 1.5367357825 4.3359352531 0.5022058242
C -0.1929336194 4.5433388455 0.3561546874
C -0.7709121254 3.2971292685 0.1952374521
H -1.8283194336 3.1195522713 0.0547357572
N 2.1409923618 0.3999454228 0.0618376594
C 2.4233831471 1.6337257797 0.3349786388
S 4.0894110804 2.0417881216 0.7178640938
C 4.6056860548 0.3475278564 0.1144240800
C 3.3016736227 -0.4819154044 0.2278574692
H 3.2352195193 -0.9533596618 1.2178017749
H 3.2881623858 -1.2751078814 -0.5217430530
H 4.8591811921 0.4829588157 -0.9418462928
C 5.7966376556 -0.2440904440 0.8483958455
C 5.9961445312 -0.1169782841 2.1644199151
C 6.7674448786 -1.0074367699 -0.0069394667
Cl 5.9644125099 -2.4203321919 -0.8580537719
H 6.8427486035 -0.5892807199 2.6533215507
H 5.3415810644 0.4769568506 2.7957583138
H 7.1833688211 -0.3927544161 -0.8091484619
H 7.5809205319 -1.4279750899 0.5831869995
C -0.8546558294 5.8509319261 0.4054730158
C -0.1734594180 7.0098270232 0.4047297796
C -2.3602343507 5.8627851350 0.4866510056
Cl -3.1569731906 5.3144530130 -1.0638163041
H -0.6901151000 7.9631802579 0.4427078417
H 0.9114247422 7.0587153065 0.3633846178
H -2.7350249578 5.1996952495 1.2690758779
H -2.7250907652 6.8718397928 0.6731639231
N 0.3076744829 -2.3048259548 -0.2209341642
C 0.0656943631 -2.8671076331 0.9523228687
S 0.1881553062 -4.5937317297 0.9409593484
C 0.5939305627 -4.5520208052 -0.7593908368
C 0.6011752772 -3.2328777062 -1.1740340193
H 0.7896977869 -2.9050943538 -2.1866257093
N -0.4458548993 -0.7555074646 1.9062316228
C -0.2985854380 -2.0289009813 2.0943257657
S -0.5477139477 -2.6645308439 3.7153717918
C -1.3242391709 -1.0292466914 4.1876371662
C -0.7028393963 -0.0467457324 3.1659957855
H 0.2518814090 0.3414985740 3.5467559510
H -1.3666682014 0.8044654376 3.0008737872
H -2.3920338751 -1.1489260517 3.9736164065
C -1.1397949043 -0.6348596844 5.6417020238
C -0.0107904225 -0.8358234228 6.3293892118
C -2.3297668692 0.0166026374 6.2871098092
Cl -2.8312391915 1.5501028964 5.4099799602
H 0.0888693358 -0.5023824760 7.3578167560
H 0.8422825407 -1.3569937409 5.9043739504
H -3.2143245209 -0.6245268280 6.2624099091
H -2.1224232545 0.3078856224 7.3161240639
C 0.8663427487 -5.7502753446 -1.5586213635
C 0.7031241879 -6.9963452028 -1.0814594384
C 1.3746223486 -5.5431466808 -2.9631136227
Cl 0.1019310614 -4.8526069794 -4.0819780887
H 0.9124786626 -7.8644142789 -1.6978255321
H 0.3561005898 -7.2024290977 -0.0724244435
H 2.2157772948 -4.8479557945 -3.0003050833
H 1.6787123300 -6.4909987522 -3.4047806122
N -2.3473143069 -0.2145543373 -0.6252883725
C -2.5974761795 -0.2308865161 -1.9249310516
S -4.2390780037 -0.6168886346 -2.3168086530
C -4.6075874602 -0.7645702659 -0.6147469299
C -3.4566233295 -0.5072732801 0.1075774803
H -3.3863884535 -0.5575498070 1.1847944714
N -0.3092443784 0.1732122135 -2.4615222134
C -1.5261219703 0.0281509667 -2.8877799315
S -1.8146473325 0.1497650657 -4.6164334038
C 0.0329381683 0.0222532993 -4.8879824206
C 0.6089912636 0.5375166386 -3.5497750170
H 0.7014983738 1.6319802525 -3.5711279838
H 1.6019025342 0.1193822278 -3.3704160086
H 0.2332727532 -1.0506661320 -4.9787533510
C 0.5437521678 0.7398799106 -6.1242446170
C 0.1115381382 1.9428591126 -6.5170823997
C 1.5940326130 0.0028720341 -6.9056060690
Cl 3.0740337415 -0.3604566283 -5.8850257903
H 0.5338687802 2.4354546689 -7.3875825055
H -0.6881926499 2.4690974491 -6.0037419544
H 1.2411427531 -0.9723791267 -7.2499617353
H 1.9445900285 0.5823129335 -7.7589902597
C -5.9374240457 -1.1096804564 -0.1019693974
C -6.9283057026 -1.5536462141 -0.8945140865
C -6.1823610988 -0.9225940283 1.3745009496
Cl -5.2861914373 -2.1438921025 2.4050513298
H -7.9037678249 -1.7996083340 -0.4880015787
H -6.8102496282 -1.6937296460 -1.9656338002
H -5.8581125403 0.0586038290 1.7262601056
H -7.2376126571 -1.0556217255 1.6076213085
