91
# extracted from Terachem optimization
Mn -0.0875688697 -0.2755345520 -0.3038692503
N 0.2260720603 1.7579999061 -0.0639080691
C 1.5122497042 2.0571673208 0.1057588558
S 1.8272518859 3.7479068132 0.2688778271
C 0.1163557125 4.0763160628 0.0891380601
C -0.5541671124 2.8791237370 -0.0724983899
H -1.6193478118 2.7878322782 -0.2294781651
N 1.9205565823 -0.2291601191 -0.0644949993
C 2.4443546481 0.9504832892 0.1191341298
S 4.1707344319 1.0573113067 0.3960500441
C 4.3272333714 -0.7375200580 -0.1231349359
C 2.9034529458 -1.3072754052 0.0971125246
H 2.8056142395 -1.7143224384 1.1124463749
H 2.7004188993 -2.1172453548 -0.6056557335
H 4.5431572074 -0.7080354598 -1.1960731744
C 5.4317291196 -1.4962970418 0.5917764021
C 5.7540168103 -1.3054439503 1.8754470091
C 6.1685100924 -2.5049334743 -0.2440744381
Cl 5.0512150230 -3.8107792395 -0.8860874609
H 6.5290201263 -1.8956045526 2.3547244879
H 5.2770401364 -0.5444452668 2.4861800122
H 6.6185163881 -2.0544509967 -1.1320406472
H 6.9385320336 -3.0171738275 0.3314056081
C -0.4421488321 5.4323998822 0.1228446645
C 0.3248872934 6.5327489657 0.0326330634
C -1.9338045528 5.5673520789 0.2949424879
Cl -2.8701610062 5.0519022519 -1.1892176617
H -0.1128273281 7.5250372311 0.0667181768
H 1.4047531698 6.4932871947 -0.0831004109
H -2.3100416654 4.9531878967 1.1155811369
H -2.2061107284 6.6064141991 0.4747290764
N -0.3647007129 -2.2949209752 -0.2462307725
C -0.5912436008 -2.7676963216 0.9777069960
S -0.9286889661 -4.4603589018 1.0240086194
C -0.7579403116 -4.5367950551 -0.7179832190
C -0.4546750007 -3.2748855602 -1.1921299857
H -0.3204065313 -3.0168115359 -2.2324228175
N -0.3533223719 -0.5690049728 1.7261000153
C -0.5570264124 -1.8122005184 2.0636851083
S -0.7282698871 -2.1949314271 3.7650805786
C -0.8981868905 -0.3608682400 4.1097181142
C -0.1872372439 0.2945382751 2.9025782992
H 0.8874098166 0.3996171719 3.1067897366
H -0.5933921762 1.2897383411 2.7130392503
H -1.9729881118 -0.1598535879 4.0507755328
C -0.3740251854 0.0745111111 5.4664825259
C 0.7636592655 -0.3806347402 6.0018162092
C -1.2263045055 1.0721767411 6.1974432554
Cl -1.4677341317 2.6069953249 5.2212972479
H 1.1206237244 -0.0147733117 6.9596085787
H 1.3637950774 -1.1482847898 5.5216375727
H -2.2344018726 0.6939739680 6.3844713849
H -0.7742561618 1.3772223845 7.1405520969
C -0.9176848120 -5.7782700230 -1.4826054641
C -1.4670783822 -6.8859866236 -0.9550946690
C -0.4101627361 -5.7906086906 -2.9027224885
Cl -1.4264545850 -4.7681451349 -4.0295091117
H -1.5689185824 -7.7943413848 -1.5397674200
H -1.8383031412 -6.9336930495 0.0652632839
H 0.6069192841 -5.4010809045 -2.9791688338
H -0.4367564068 -6.8000475281 -3.3105189039
N -2.1297023996 -0.0328780575 -0.6049358967
C -2.4386402075 0.1310810536 -1.8889079032
S -4.1328528124 0.2745080985 -2.1922822351
C -4.4478770771 0.0910853687 -0.4804484298
C -3.2447427613 -0.0531873886 0.1823819990
H -3.1455872277 -0.2094014931 1.2463342647
N -0.1528881666 -0.0345912670 -2.3237064164
C -1.3391675015 0.1509423294 -2.8313702891
S -1.4689462275 0.4430581274 -4.5528392874
C 0.3230777843 -0.0726308986 -4.7361734793
C 0.9103192440 0.1450555373 -3.3199374222
H 1.3061803007 1.1648028361 -3.2223828427
H 1.7301326135 -0.5509194931 -3.1341299489
H 0.2921899344 -1.1449652375 -4.9553743355
C 1.0676857501 0.6481317342 -5.8463546255
C 0.8912732109 1.9406729815 -6.1403737439
C 2.0447335853 -0.1918461566 -6.6193431032
Cl 3.3523859808 -0.8915623905 -5.5378464480
H 1.4716076581 2.4249816246 -6.9197028910
H 0.1515726128 2.5546144633 -5.6346606418
H 1.5672992667 -1.0589458268 -7.0821098436
H 2.5586725104 0.3894866167 -7.3838470394
C -5.8015166576 0.1099146909 0.0870522140
C -6.8990395301 -0.0937955369 -0.6617977501
C -5.9372131679 0.4032137309 1.5596258675
Cl -5.3586656777 -0.9725480305 2.6208704519
H -7.8907743381 -0.0657084532 -0.2222395742
H -6.8558772552 -0.3025205620 -1.7274102999
H -5.3540715596 1.2756405521 1.8606763314
H -6.9815312331 0.5621315128 1.8246226127
