133
# extracted from Terachem optimization
Mn 0.2573365806 0.0400772101 0.0611879286
N 0.6252565546 2.3087592046 0.4583369011
C 1.9239337398 2.5392448369 0.4996582307
S 2.3455845125 4.2165388966 0.3825838612
C 0.6552536786 4.6201804736 0.2674253008
C -0.0917794424 3.4702470005 0.3240353012
H -1.1714851474 3.4410343059 0.2894015605
N 2.4372689586 0.2185237255 0.3596932679
C 2.8957352569 1.4228847992 0.5813509947
N 4.1712900687 1.7106378854 0.9041245478
C 5.2994316908 0.7917650838 0.6756936955
C 4.7923154739 -0.4705598647 -0.0232823060
C 3.4124533180 -0.8643393874 0.5193691225
H 5.7316644629 0.5276378455 1.6447966305
H 4.7109141326 -0.2905132534 -1.1003361172
H 5.5041291998 -1.2842566920 0.1427144352
H 4.4592419406 2.6729530582 1.0456325523
H 3.4876270085 -1.1249378984 1.5859590164
H 3.0300613641 -1.7481537499 0.0007910780
C 6.3719895345 1.5893983207 -0.1231556061
O 5.8943580603 1.9752226981 -1.3810595367
O 6.5747244218 2.7543013498 0.6671938209
C 7.7371635415 0.8541995455 -0.3143529470
N 8.0982471276 0.1285276463 0.8968319252
N 7.6622826002 -0.0088833130 -1.4924059355
H 6.3386947515 1.3574539274 -2.0078570799
H 6.9548336044 3.4268326763 0.0757005437
H 8.4401427980 1.6612083752 -0.5822196966
H 9.0386668221 -0.2536663045 0.8039899239
H 8.1300465154 0.7755218073 1.6855244428
H 8.5704009151 -0.1035959600 -1.9403410684
H 7.3528408879 -0.9427643464 -1.2266311752
C 0.2765556039 6.0829233395 0.0212497032
O 1.4279650042 6.8653364635 0.2188309091
O -0.1892289201 6.2409574207 -1.2961412959
C -0.8511309519 6.6247393247 0.9394213493
N -2.0631991967 5.8189202235 0.7938812613
N -0.3332503827 6.6786133398 2.2963003021
H 1.3801170738 7.1536023203 1.1571393837
H 0.5861408670 6.2784014433 -1.8815570657
H -0.9738332809 7.6655071971 0.6053405286
H -2.8086105598 6.2381603745 1.3493241445
H -2.3695259210 5.8706519293 -0.1788531714
H -0.8176053142 7.3752512224 2.8563326871
H -0.4394812060 5.7752925586 2.7566435400
N -0.0922007869 -2.2670603294 0.0382397827
C -0.3984677912 -2.7532700407 1.2266614723
S -1.0311552581 -4.3625791156 1.1891371364
C -0.8561719181 -4.3783033842 -0.5427372141
C -0.3487071887 -3.1738043589 -0.9585038043
H -0.1375938565 -2.9100850430 -1.9847181734
N -0.0768868109 -0.6292731084 2.2062180784
C -0.2473759544 -1.9043836556 2.4290259860
N -0.2698237223 -2.4929583664 3.6390374984
C -0.3473646181 -1.7525502378 4.9048992149
C -0.6767267252 -0.2904884196 4.6056357640
C 0.1289151267 0.2030333028 3.3952882693
H 0.6226808881 -1.8160318358 5.4074847292
H -1.7463704641 -0.1942645609 4.3913786050
H -0.4377336275 0.3225637100 5.4793603627
H -0.4216649446 -3.4909319101 3.7303326781
H 1.2015512611 0.2225822263 3.6417444095
H -0.1564948775 1.2269260537 3.1397774310
C -1.3895335678 -2.4878498048 5.7975575588
O -2.6748512968 -2.4329563953 5.2464544986
O -0.9427304004 -3.8386250305 5.7869801143
C -1.4638267160 -1.9861169559 7.2771958923
N -0.1317740795 -1.6719362200 7.7779293181
N -2.3841644425 -0.8524926343 7.3591945136
H -3.1441442967 -1.7661279278 5.8008747545
H -1.7144163016 -4.3844044021 6.0179261172
H -1.9613214792 -2.8110875889 7.8146725643
H -0.1773718950 -1.4599931459 8.7740650699
H 0.4658121212 -2.4944621639 7.6891273059
H -2.8382660192 -0.8090797237 8.2682381798
H -1.8778544674 0.0216803547 7.2270517946
C -1.3473299891 -5.6004787041 -1.3166639019
O -1.8101513285 -6.5437475283 -0.3795236468
O -2.3742598830 -5.2317356726 -2.2002467141
C -0.2670265192 -6.2799733244 -2.2041071094
N 0.2870827337 -5.3208005024 -3.1572479426
N 0.7213301894 -6.8801263700 -1.3239122303
H -1.0526592819 -7.1548983572 -0.2421319154
H -3.1583666939 -4.9989621633 -1.6746232616
H -0.8122747938 -7.1090842903 -2.6795254722
H 0.9450975845 -5.8024633228 -3.7692102422
H -0.4708116364 -4.9886829230 -3.7550633471
H 1.1997593762 -7.6575312437 -1.7711818789
H 1.4235556913 -6.1924824646 -1.0531146154
N -2.0265555182 0.3455835962 -0.3247520832
C -2.2417639672 0.3537483039 -1.6260279955
S -3.8870039424 0.0557950344 -2.0747417755
C -4.3031773235 -0.0777482627 -0.3899063376
C -3.1802489243 0.0983477240 0.3762687737
H -3.1644829841 0.0650656446 1.4562618311
N 0.0862352936 0.3759318696 -2.1170765353
C -1.1248099422 0.5490078101 -2.5798788154
N -1.4220996557 0.9146398823 -3.8400815650
C -0.4740328188 0.8323943772 -4.9621017827
C 0.8220451227 0.1768099594 -4.4819818029
C 1.1676406692 0.6571094803 -3.0661882409
H -0.2644586460 1.8469971341 -5.3126145983
H 0.7066713694 -0.9121050143 -4.4699212789
H 1.6321316963 0.4359039215 -5.1696421264
H -2.3873094833 1.0295870339 -4.1289615409
H 1.3644291365 1.7400026215 -3.0774090214
H 2.0772785928 0.1736115367 -2.6998121274
C -1.2044007633 0.0723927168 -6.1072918993
O -1.5311294326 -1.2347624636 -5.7276972120
O -2.4048994124 0.8138984633 -6.2835403030
C -0.4335729164 0.0161543154 -7.4644603137
N 0.2244799626 1.2890309463 -7.7306280175
N 0.4974853188 -1.1117785566 -7.4486484147
H -0.8687722183 -1.7937854110 -6.1970622797
H -3.0399179776 0.2135840889 -6.7115294495
H -1.2095843796 -0.2521239845 -8.2013622385
H 0.6246989431 1.2824117472 -8.6680560951
H -0.4676670170 2.0389126024 -7.7207925304
H 0.6406461142 -1.4854228100 -8.3836623129
H 1.4057380499 -0.8139302517 -7.0952095003
C -5.7383019636 -0.4628290648 -0.0538977668
O -6.5545458015 -0.2016362449 -1.1702766098
O -5.7281871893 -1.8544654271 0.1785807815
C -6.3434188594 0.2864938907 1.1669325784
N -5.5253757289 0.0606198538 2.3557239164
N -6.4960090285 1.6883734775 0.8067650608
H -6.8849297440 0.7134840359 -1.0316764367
H -6.6308186755 -2.1645081120 -0.0180916551
H -7.3644807443 -0.1217116058 1.2511085662
H -5.9981397191 0.4411419787 3.1744863614
H -5.4384124163 -0.9449874169 2.5074435042
H -7.2130827979 2.1450770487 1.3649428412
H -5.6187361392 2.1851807755 0.9579232692
