169
# extracted from Terachem optimization
Mn 0.0307862556 -0.1421273288 0.0127281945
N 0.4887166298 2.0753862665 -0.1441955185
C 1.7946933327 2.2988828288 0.0021581672
N 2.0516705956 3.6236255214 -0.1855457707
C 0.8700458800 4.2798979395 -0.4642500950
C -0.0902554650 3.2787570290 -0.4310034827
H -1.1527883286 3.3891498664 -0.5741625518
H 2.9624394890 4.0613618548 -0.1648950789
N 2.2791475658 0.0254875813 0.2992126904
C 2.7568933752 1.2368918416 0.3024348016
C 4.1499190137 1.5627768473 0.5970938228
C 5.1153910466 0.6139212151 0.5236421789
C 4.6365770636 -0.7745744702 0.1316548697
C 3.2286000943 -1.0325520782 0.6666007661
H 4.6527643804 -0.8555398159 -0.9642904575
H 5.3149856463 -1.5517594990 0.4822114672
H 4.3880784980 2.5887880117 0.8507263776
H 3.2477729637 -1.1016303339 1.7666934124
H 2.8370532995 -1.9832371756 0.2940539112
C 6.5910726107 0.9083611154 0.8183067959
C 6.7851944175 2.3439768276 1.3548683750
C 7.0745978958 -0.0520076894 1.9398066189
C 7.4761579124 0.7040731319 -0.4848564238
N 7.4678483388 -0.6966318036 -0.8872047125
C 6.9883467330 1.5433303589 -1.6745095520
O 8.7792743999 1.1462331836 -0.0856629039
H 6.2005991817 2.4899685261 2.2693952861
H 7.8370608053 2.5070110894 1.5900098840
H 6.4901099458 3.1138760819 0.6350461063
H 6.9762192375 -1.1076520961 1.6744028206
H 8.1256024008 0.1485272419 2.1612124479
H 6.4950451689 0.1164936430 2.8537297966
H 7.8829660692 -0.7977045847 -1.8126288552
H 8.0510983440 -1.2340329653 -0.2482032746
H 7.0010685888 2.6084254879 -1.4352174770
H 7.6578581605 1.3913368805 -2.5308781907
H 5.9796996664 1.2576201705 -1.9867098819
H 9.3651463450 1.0920457577 -0.8584094438
C 0.7987283133 5.7615274875 -0.7858628493
C 2.1885369569 6.4183424334 -0.6413730827
C 0.3485272197 5.9196349384 -2.2622667535
C -0.2433259222 6.4759861745 0.1690721431
N -1.5820166872 5.9546075059 -0.0963382669
C 0.0658027638 6.2731041386 1.6582581479
O -0.1249493800 7.8609420091 -0.1707771992
H 2.8956316374 5.9971805553 -1.3668867368
H 2.1067127356 7.4866571068 -0.8432360904
H 2.6119366740 6.3066771429 0.3634277026
H -0.5937888222 5.3990392624 -2.4541971317
H 0.2278507145 6.9784352230 -2.5060222714
H 1.1026678074 5.4951226341 -2.9332412745
H -2.2213038789 6.2434275245 0.6429263213
H -1.9326014169 6.3644872587 -0.9603182038
H 1.0518866452 6.6658418670 1.9154702225
H -0.6697443451 6.8176652957 2.2645806870
H 0.0128924049 5.2178751290 1.9403564953
H -0.6816214411 8.3727715176 0.4382372482
N -0.2736670009 -2.3705161379 0.3933935335
C -0.5895794692 -2.5755499765 1.6726243458
N -0.9355830492 -3.8809585248 1.8511997004
C -0.8445182414 -4.5436814481 0.6451888731
C -0.4263090924 -3.5675022054 -0.2476031175
H -0.2148794977 -3.6905425812 -1.2972353387
H -1.2527574917 -4.2989206829 2.7146219558
N -0.3627873785 -0.3131191631 2.2371873814
C -0.5677957214 -1.5177837949 2.6845111635
C -0.7454027885 -1.8441418399 4.0981493389
C -1.0492691665 -0.8821312961 5.0035115586
C -1.1826675199 0.5257057804 4.4450858871
C -0.2460342995 0.7354870582 3.2565632544
H -2.2282405591 0.6895235673 4.1504616351
H -0.9804236535 1.2824901604 5.2026681213
H -0.6412021749 -2.8815972216 4.3918605058
H 0.8018625613 0.7527885731 3.5993457218
H -0.4403577939 1.6976361400 2.7745997404
C -1.2453410278 -1.1816566027 6.4957369238
C -0.9166413866 -2.6541906085 6.8267116510
C -0.2498165140 -0.3098085575 7.3108473460
C -2.7329216719 -0.8597978094 6.9509669872
N -3.0045924663 0.5657245151 6.8171154996
C -3.7851660387 -1.6226257465 6.1335804480
O -2.7721545081 -1.2948190396 8.3148763121
H 0.1202683160 -2.8851155246 6.5604097306
H -1.0406720929 -2.8222132965 7.8963732343
H -1.5689035605 -3.3643856831 6.3089164538
H -0.3741800603 0.7623468415 7.1375690015
H -0.3899395899 -0.5008951426 8.3774176289
H 0.7811601717 -0.5706738217 7.0491627900
H -3.9995406113 0.7472209988 6.9437775492
H -2.5207662715 1.0751792922 7.5542442167
H -3.6657687372 -2.7013538206 6.2513635857
H -4.7896611995 -1.3643474637 6.4932296248
H -3.7378838052 -1.3703009343 5.0701877384
H -3.6743674011 -1.1585661207 8.6476560455
C -1.2253868008 -6.0030674086 0.4718547926
C -1.6111584690 -6.6298658033 1.8302546238
C -2.4690666668 -6.0726030851 -0.4538356211
C -0.0271706176 -6.8052323847 -0.1819122687
N 0.2092574138 -6.3051587521 -1.5340773684
C 1.2797830120 -6.6896484425 0.6119089188
O -0.4827698168 -8.1629861487 -0.1789853575
H -2.4952708534 -6.1337316873 2.2493164456
H -1.8604786827 -7.6813630668 1.6867015299
H -0.8006570062 -6.5838620275 2.5664847266
H -2.2861875685 -5.5737569000 -1.4094676727
H -2.7413566475 -7.1146610234 -0.6406206677
H -3.3199248042 -5.5740314465 0.0219970391
H 1.1027009965 -6.6516383685 -1.8810934472
H -0.5068062901 -6.6824604399 -2.1522850678
H 1.1574074303 -7.0615092170 1.6313145147
H 2.0569644051 -7.2993525836 0.1328571086
H 1.6413635241 -5.6582063080 0.6448327168
H 0.2497324292 -8.7316026793 -0.4672872052
N -2.1136581064 0.1762304906 -0.7273197442
C -2.2224666883 -0.0032329320 -2.0426164900
N -3.5306326419 0.0937713751 -2.4099110148
C -4.2993008994 0.3365850250 -1.2893446580
C -3.3793500929 0.3831892545 -0.2524935387
H -3.5815303154 0.5742510007 0.7885961922
H -3.8947482646 -0.0305216861 -3.3441758592
N 0.0477503370 -0.4997688100 -2.2852844614
C -1.0742235785 -0.2820399506 -2.9047510922
C -1.2219670574 -0.2702929976 -4.3586297892
C -0.2772626771 -0.8175972718 -5.1601043010
C 0.9034829698 -1.4479408516 -4.4405985456
C 1.2193567528 -0.6959567806 -3.1471355594
H 0.6617841340 -2.4981504930 -4.2224826555
H 1.7904220462 -1.4883694216 -5.0721481278
H -2.1136411160 0.1865713273 -4.7711724489
H 1.6325737800 0.2998516770 -3.3777570401
H 1.9802794009 -1.2296072808 -2.5711613791
C -0.3779991187 -0.7975730242 -6.6895814721
C -1.6144188169 -0.0056702386 -7.1678534302
C 0.8677567698 -0.0606007546 -7.2546886136
C -0.4419061942 -2.2723233795 -7.2764711789
N 0.8172467052 -2.9681392631 -7.0445245386
C -1.5700853497 -3.1108126865 -6.6590615440
O -0.6992730744 -2.0765970230 -8.6735251751
H -1.5726959719 1.0272192414 -6.8057234228
H -1.6326743031 0.0139008409 -8.2573168131
H -2.5587528246 -0.4474059757 -6.8341436315
H 1.8121855395 -0.5129062721 -6.9418148135
H 0.8295353851 -0.0665252159 -8.3469408616
H 0.8705676799 0.9820859823 -6.9197670108
H 0.7156308803 -3.9583940596 -7.2638079746
H 1.5254831370 -2.6024680323 -7.6786211944
H -2.5414942424 -2.6379804475 -6.8148902764
H -1.6028721524 -4.0955725205 -7.1429394531
H -1.4178686663 -3.2725012025 -5.5879469309
H -0.8047864294 -2.9501144325 -9.0846056821
C -5.8145239389 0.4175570099 -1.3345020524
C -6.3150787973 0.4468872419 -2.7960118882
C -6.3893666012 -0.8570242430 -0.6603072707
C -6.3220823198 1.7032716301 -0.5623057277
N -5.9695289600 1.5917166231 0.8506787814
C -5.7302991829 3.0094337546 -1.1073199338
O -7.7388658789 1.6872153435 -0.7685815670
H -6.0834558113 -0.4958995655 -3.3074401969
H -7.3987269164 0.5651677433 -2.8042494467
H -5.8875770391 1.2724474450 -3.3760427061
H -6.0102631618 -0.9793602499 0.3581913287
H -7.4811723558 -0.8092786746 -0.6331326718
H -6.0973724301 -1.7460009294 -1.2292537437
H -6.1001651948 2.4896890736 1.3147658121
H -6.6081188305 0.9373776130 1.2993443963
H -5.9814054759 3.1460156007 -2.1612179215
H -6.1534102301 3.8610235591 -0.5581945626
H -4.6439327175 3.0429918750 -0.9874754213
H -8.1104344763 2.5057776655 -0.4017298357
