73
# extracted from Terachem optimization
Mn 0.1585773774 0.0142817620 0.1563332362
N 0.4860140558 2.3090735100 -0.0511715979
C 1.7694371696 2.5826192561 -0.2267402691
S 2.1199723458 4.2662550875 -0.4302008466
C 0.4185122822 4.6185270391 -0.2737812643
C -0.2734688528 3.4504047810 -0.0756814509
H -1.3453801483 3.4019987891 0.0554425622
N 2.3961375535 0.2362576696 -0.0935454249
C 2.7216154311 1.5006620013 -0.2437899371
O 4.0363241525 1.6908904118 -0.4292250368
C 4.6022850208 0.4299129956 -0.3990416953
C 3.5930770944 -0.4603623768 -0.1903539863
H 3.6546507788 -1.5333771400 -0.1090435334
C 6.0788995944 0.3012017588 -0.6007893874
N 6.4784819750 -1.0649489319 -0.2736108245
H 6.5895444232 1.0940808609 -0.0303048289
H 6.3045436406 0.4957335443 -1.6572694588
H 7.3054849910 -1.3280147802 -0.8020817691
H 6.7193829996 -1.1442442904 0.7115438612
C -0.1352995932 6.0193993528 -0.3832725739
N -1.4917620512 6.0578077959 0.1598584174
H 0.5681762130 6.7301451961 0.0799078869
H -0.1822053193 6.2885266699 -1.4461636376
H -1.4668900428 6.2149240461 1.1654048138
H -2.0051966579 6.8368699549 -0.2448681797
N -0.0715849204 -2.2784942202 0.4863367385
C -0.2655192854 -2.5507826804 1.7673199535
S -0.4732786496 -4.2339667671 2.1168409463
C -0.2924192857 -4.5880501776 0.4181956681
C -0.0846051119 -3.4205677224 -0.2722219073
H 0.0627300781 -3.3744078949 -1.3421401963
N -0.1350954582 -0.2034044409 2.3896672327
C -0.2940845814 -1.4666520402 2.7165621678
O -0.4976645628 -1.6527107559 4.0288898990
C -0.4704562135 -0.3904914097 4.5922815584
C -0.2449533733 0.4965283732 3.5840132291
H -0.1597617279 1.5693022274 3.6442315065
C -0.6914257933 -0.2580579501 6.0656811307
N -0.3595538442 1.1063171580 6.4679559585
H -0.1341419838 -1.0545957484 6.5851434305
H -1.7524410078 -0.4437886941 6.2769602091
H -0.8920777426 1.3710868401 7.2918732649
H 0.6243402735 1.1795005169 6.7161407612
C -0.3925052765 -5.9892921441 -0.1369564129
N 0.1439671472 -6.0200231677 -1.4956410099
H 0.0806001772 -6.6966506876 0.5634399160
H -1.4532373592 -6.2675864816 -0.1784781675
H 1.1502586047 -6.1724606574 -1.4785859690
H -0.2611771423 -6.7962369440 -2.0127437478
N -2.1249878216 0.3455889735 -0.1872545003
C -2.4450554292 0.1529413140 -1.4573017022
S -4.1300540021 0.3487309988 -1.8088525074
C -4.4181757717 0.7079486743 -0.1262139391
C -3.2314702955 0.6587257058 0.5610922820
H -3.1454122432 0.8481498046 1.6221199035
N -0.1445359030 -0.3253473027 -2.0935934620
C -1.4135808587 -0.1918891647 -2.4033715466
O -1.6694384333 -0.4106692606 -3.7031928690
C -0.4489538382 -0.7150449231 -4.2746517622
C 0.4850747465 -0.6595704300 -3.2842495614
H 1.5462058525 -0.8353894297 -3.3566385278
C -0.3975808262 -1.0334302209 -5.7354478922
N 0.9958936907 -1.0006056428 -6.1715837541
H -1.0805545333 -0.3563782627 -6.2739618424
H -0.7931194679 -2.0462152960 -5.8863060701
H 1.1293844839 -1.6076696590 -6.9755688780
H 1.2597446028 -0.0623114540 -6.4632514273
C -5.7964205430 0.9897499716 0.4236277429
N -5.6827037357 1.6140179329 1.7396242572
H -6.3758481120 1.5680446472 -0.3143940255
H -6.3229685585 0.0339811067 0.5401940148
H -5.5816655332 2.6228441525 1.6487355479
H -6.5308251404 1.4515175462 2.2766106044
