127
# extracted from Terachem optimization
Mn -0.0958428682 -0.0065665741 0.1883826266
N -0.0064313688 1.9823697398 0.0032100549
C 1.1705600240 2.5443312039 -0.2222291476
C 1.0801513014 3.9620854414 -0.4146793324
C -0.2402672201 4.3100951876 -0.3103016758
C -1.0080215164 3.0462846984 -0.0358803021
H -1.5525063996 3.1048126034 0.9165659107
H -1.7574559133 2.8395001628 -0.8117837267
H 1.9176133269 4.6182387928 -0.6133294752
N 2.1737144301 0.3821919719 -0.1591163302
C 2.3647523680 1.6770856221 -0.2647195641
C 3.7462651554 2.0667780359 -0.4049321567
C 4.4834955983 0.9178032426 -0.3785369929
C 3.5062156646 -0.2151900508 -0.2119272518
H 3.6995183658 -0.7847541832 0.7089065498
H 3.5716068055 -0.9388072045 -1.0369582782
H 4.1101878915 3.0811552114 -0.5057999764
C 5.9703301044 0.7334225867 -0.4909996503
C 6.7183314694 1.5708223476 0.5694074554
C 6.4754365180 1.0738844230 -1.9219297156
C 5.8870606512 0.2029726821 -3.0344569951
H 6.1891641355 -0.3276649093 -0.3085528566
H 7.7923441274 1.3751043282 0.5005598901
H 6.5640133936 2.6437355657 0.4116091555
H 6.3955559266 1.3231043589 1.5858328095
H 6.2774086251 2.1341032354 -2.1253867115
H 7.5652227028 0.9602726117 -1.9088512390
H 4.8004486158 0.3358808114 -3.1286616499
H 6.3297467997 0.4641458175 -4.0002967946
H 6.0893646275 -0.8608571767 -2.8602678296
C -0.8770835145 5.6626014654 -0.4178025745
C -0.4561735180 6.3783855614 -1.7209054727
C -0.5438590355 6.5415025658 0.8255523394
C -1.0437620239 5.9883321489 2.1613622797
H -1.9663573280 5.5215948948 -0.4356808115
H -0.9882917936 7.3306727173 -1.7986811704
H 0.6174627435 6.5949432635 -1.7291624735
H -0.6959784620 5.7840799912 -2.6082985966
H 0.5400423075 6.7083617915 0.8626202210
H -1.0009561197 7.5205796747 0.6432531515
H -0.5419830928 5.0500378396 2.4362718413
H -0.8482370807 6.7031649073 2.9661445138
H -2.1257247086 5.8086149301 2.1421756021
N 0.1467630225 -2.0093348397 0.4680290863
C 0.2781308275 -2.3790841353 1.7289673285
C 0.3607827261 -3.7969679442 1.9058640084
C 0.2633010018 -4.3608631430 0.6605793051
C 0.1147448878 -3.2326369619 -0.3270277011
H 0.9205312024 -3.2381448312 -1.0728994411
H -0.8318719649 -3.2999677695 -0.8804765573
H 0.4670093837 -4.3073184943 2.8541941445
N 0.0958829952 -0.0717974077 2.1953419659
C 0.2853806296 -1.2784891608 2.7050057001
C 0.4717789617 -1.2760904464 4.1222740060
C 0.3969308803 0.0294516161 4.5355740657
C 0.1507970783 0.8685807475 3.3106437019
H 0.9478554675 1.6080893793 3.1526015334
H -0.7907802775 1.4289239670 3.3950033784
H 0.6431107782 -2.1511506821 4.7357258983
C 0.5068240438 0.5916829992 5.9199965413
C 1.7997739430 0.1119036379 6.6178023745
C -0.7471985437 0.2295094391 6.7728099591
C -2.0693507993 0.7929976184 6.2488220394
H 0.5417950020 1.6862755786 5.8369341707
H 1.8798315500 0.5913635429 7.5974071393
H 1.7893998046 -0.9717307397 6.7766957909
H 2.6942675484 0.3685198823 6.0415467166
H -0.8076569668 -0.8618974429 6.8690979211
H -0.5582467468 0.6183228304 7.7797439922
H -2.3463708906 0.3671113879 5.2744993544
H -2.8828676302 0.5605730104 6.9423813480
H -2.0293101906 1.8846282007 6.1496413133
C 0.3001982431 -5.8059780639 0.2655915136
C -0.6293402688 -6.6600721028 1.1539324379
C 1.7572031855 -6.3621947370 0.3022063899
C 2.7434191097 -5.6683392577 -0.6395171961
H -0.0484495626 -5.8759143915 -0.7738841658
H -0.6373384565 -7.6901485967 0.7864060486
H -0.2816650827 -6.6825356915 2.1923897056
H -1.6592530388 -6.2897221746 1.1417744309
H 2.1257098902 -6.3218904998 1.3349144035
H 1.6875566625 -7.4235552665 0.0387926086
H 2.9268842402 -4.6241741100 -0.3509334744
H 3.7103657498 -6.1797442526 -0.6207460116
H 2.3878953492 -5.6837468548 -1.6772814303
N -2.3703865248 -0.2514480597 -0.0183708619
C -2.6949849637 -0.4493163981 -1.2760603420
C -4.0984088911 -0.6849109826 -1.4989795194
C -4.7068060071 -0.6299324996 -0.2769287122
C -3.6224633397 -0.3523715263 0.7302344485
H -3.8128200736 0.5766708046 1.2864660953
H -3.5520957988 -1.1503702109 1.4836074713
H -4.5622888922 -0.8724107616 -2.4587675399
N -0.3652315641 -0.2721395426 -1.8127199103
C -1.5994295838 -0.4108196163 -2.2633250734
C -1.6724406686 -0.4830251767 -3.6943512694
C -0.3965341402 -0.3687322883 -4.1745919281
C 0.5098950368 -0.2189444002 -2.9827648062
H 1.0573820243 0.7327400373 -3.0067265009
H 1.2662088242 -1.0139198311 -2.9443970443
H -2.5837404264 -0.5947516936 -4.2672574959
C 0.0930894601 -0.3904401060 -5.5920837160
C -0.7061792606 0.5891790646 -6.4782466305
C 0.0418985513 -1.8324086680 -6.1813208553
C 0.8998793278 -2.8640409642 -5.4458317004
H 1.1460098496 -0.0771009070 -5.5866798182
H -0.2859124425 0.5934860362 -7.4879831189
H -1.7567957329 0.2898760562 -6.5566409281
H -0.6672298264 1.6126601264 -6.0920099313
H -1.0035795638 -2.1635904944 -6.2174853427
H 0.3778918389 -1.7557352708 -7.2215112074
H 0.5434493602 -3.0430278830 -4.4218507348
H 0.8713362223 -3.8249866524 -5.9679591270
H 1.9503497635 -2.5516205835 -5.3963873828
C -6.1573556695 -0.7865758159 0.0777651644
C -6.7540049903 -2.0714520406 -0.5343832404
C -6.9799559436 0.4630523179 -0.3537460260
C -6.5361325288 1.7808670521 0.2854916118
H -6.2265904637 -0.8586488725 1.1719550944
H -7.7870142121 -2.1941032067 -0.1961440628
H -6.7673693774 -2.0235141371 -1.6287519665
H -6.1940942523 -2.9634645499 -0.2355770306
H -6.9520874969 0.5441050242 -1.4479048307
H -8.0227217684 0.2601923905 -0.0846522881
H -5.5239228377 2.0685995145 -0.0300306348
H -7.2083803883 2.5931119973 -0.0063819020
H -6.5523396872 1.7219432134 1.3807080470
