142
# extracted from Terachem optimization
Mn 0.4397787252 0.0907425473 0.4379531107
O 0.5488469678 2.4912929806 0.5502153950
C 1.8121473273 2.9521515993 0.0064049239
C 2.1110847508 4.4151417529 0.3315565221
C 2.0356282483 4.7205762807 1.8375559440
C 0.7719403489 4.0903451409 2.3713007422
C 0.1274417937 3.1136680171 1.7351588258
H 2.9090849056 4.2548334488 2.3207161437
H 1.3692165202 5.0155333517 -0.2034466244
H 3.0874898566 4.6827555369 -0.0731760141
H -0.8179940612 2.6913504596 2.0509679173
H 0.3394209405 4.4624284938 3.2924004175
H 1.6978847649 2.8560768880 -1.0807548235
N 2.5567395254 0.7255778901 0.6947213697
C 2.8820509521 1.9474378164 0.4131852410
O 4.1079184172 2.4423247017 0.4162886558
C 5.2777814053 1.5400606670 0.3795339956
C 4.8989657654 0.2127807593 0.9686573179
C 3.6167968944 -0.1326393101 1.0959518594
H 6.0202815582 2.0396520559 1.0036722583
H 3.3009190163 -1.0768775507 1.5225337263
H 5.7011999414 -0.4450262438 1.2760026633
C 5.8206825078 1.5295201226 -1.0736598323
O 4.7844622104 0.9507607876 -1.8925423507
C 6.1682853201 2.9426818642 -1.5416465956
C 7.0698818654 0.6099992914 -1.1726048903
O 7.9299477724 0.9677221800 -0.1354301081
O 6.7370032151 -0.7531895673 -1.0419467308
H 4.9027722182 1.2895073477 -2.7951769289
H 6.9812314724 3.3565750095 -0.9387159795
H 6.5136755686 2.9214450238 -2.5827846991
H 5.3051553068 3.6101652306 -1.4779538640
H 7.5407778273 0.7809298684 -2.1582242924
H 8.7372941618 0.4314771132 -0.2050396563
H 5.9967192354 -0.9167865763 -1.6523786047
C 2.1741020324 6.2618441905 2.0979150886
O 3.2977989126 6.7351922675 1.3600607197
C 0.9607700364 7.0646920408 1.6277016186
C 2.4840555156 6.5972846726 3.5827136111
O 1.4657455211 6.1131380261 4.4178077844
O 3.7572595373 6.1006642513 3.9708243112
H 4.0828248374 6.5476971844 1.9080035105
H 0.0416916997 6.7223141813 2.1100559256
H 1.1078281337 8.1221271791 1.8661298359
H 0.8447436241 6.9952581045 0.5421755118
H 2.5871753901 7.6863341478 3.6517363789
H 1.5777437062 6.5154580253 5.2951435399
H 3.6392359125 5.1663622693 4.2136802664
O 0.4320404202 -2.2463158163 0.4680347954
C -0.4345045941 -2.7332759636 1.5294748669
C -0.2548755890 -4.2219366991 1.8133935837
C 1.2159428243 -4.5970573069 2.0632080847
C 2.0350471998 -4.0067581773 0.9399666965
C 1.6151753031 -2.9616606752 0.2303774015
H 1.5195173177 -4.1396262368 3.0188122674
H -0.6299201355 -4.7625056226 0.9389747962
H -0.8784291836 -4.5095094698 2.6600916905
H 2.1333497454 -2.5320587383 -0.6189322472
H 2.9813840054 -4.4587790884 0.6667064389
H -1.4482491408 -2.5553526084 1.1504941299
N 0.1350890433 -0.5772511793 2.5201490443
C -0.2534413951 -1.7965231164 2.7167090929
O -0.5354437988 -2.3404106626 3.8864223811
C -0.7512986096 -1.4948409306 5.0807045000
C -0.0510812728 -0.1811952870 4.8929655887
C 0.3432395221 0.2153032395 3.6823034037
H -0.2929319073 -2.0614456656 5.8926159822
H 0.8580037833 1.1519774002 3.5063634092
H 0.1119744245 0.4239404846 5.7747520214
C -2.2769536330 -1.4378546899 5.3555893965
O -2.8832624380 -0.7925765149 4.2173458592
C -2.8465716293 -2.8416352188 5.5628911227
C -2.5597559718 -0.5530333486 6.6025184832
O -1.6814580284 -0.9606454958 7.6062261395
O -2.3493590255 0.8160645320 6.3404511206
H -3.7810057412 -1.1481545717 4.1163274465
H -2.4214512625 -3.2952622742 6.4625244617
H -3.9333044561 -2.7921499958 5.7044579278
H -2.6361662484 -3.4887435131 4.7076735547
H -3.6113982593 -0.7122035580 6.9025791646
H -1.8834634331 -0.4615214418 8.4151122036
H -2.8452080504 1.0215002508 5.5286099847
C 1.3681391586 -6.1435510249 2.2723686838
O 0.3854453412 -6.5562834034 3.2206048756
C 1.1343625205 -6.9542481034 0.9991697188
C 2.7348121822 -6.5287955851 2.9033268886
O 3.7878353453 -6.1235075864 2.0686304236
O 2.8650744780 -5.9845709823 4.2095054704
H 0.7521935400 -6.3518736811 4.1010390232
H 1.8480573967 -6.6842565031 0.2169231484
H 1.2460884024 -8.0195249612 1.2212846769
H 0.1180166720 -6.8089533436 0.6213552360
H 2.7248254301 -7.6140062320 3.0563569020
H 4.5964253696 -6.5809002306 2.3531966892
H 3.2107017581 -5.0817121934 4.1057324812
O -1.8455978935 0.0786308989 0.0923173248
C -2.2359946820 0.0057715746 -1.3097820406
C -3.4530216691 0.8706745503 -1.6567024357
C -3.4343854276 2.2250637681 -0.9175400541
C -3.3431475231 1.9043089904 0.5554034551
C -2.6203027851 0.8651323495 0.9646828244
H -2.5192703757 2.7585666627 -1.2258548511
H -4.3513623219 0.3194759608 -1.3666486147
H -3.4915966653 1.0169614601 -2.7362702107
H -2.5250749258 0.5068723278 1.9834108391
H -3.8946849614 2.4790945513 1.2892062180
H -2.4898166538 -1.0478352226 -1.4876398667
N 0.1927588713 0.2957053425 -1.6947386448
C -1.0087114170 0.2671024871 -2.1744934930
O -1.3342288334 0.3963520895 -3.4471363973
C -0.3256264285 0.3833288954 -4.5262805687
C 1.0448355403 0.5435200975 -3.9425455858
C 1.2516926577 0.4870703778 -2.6266451343
H -0.5861940323 1.2389202178 -5.1529638961
H 2.2370339355 0.5762728480 -2.1824009677
H 1.8592129947 0.6704055406 -4.6437775262
C -0.5551919471 -0.9002213280 -5.3694351729
O -0.1988100446 -2.0079789418 -4.5276184882
C -2.0071036855 -0.9951453237 -5.8408418046
C 0.4037542134 -0.9161185485 -6.5944831175
O 0.3149722506 0.3288612718 -7.2153468142
O 1.7441634661 -1.1463538130 -6.2181725759
H -0.7269758347 -2.7764209707 -4.7986843943
H -2.2571993016 -0.1517298325 -6.4904370232
H -2.1517327686 -1.9123922890 -6.4246013104
H -2.7005413655 -1.0098622405 -4.9963975023
H 0.0709101613 -1.7245242439 -7.2701371733
H 0.8590287074 0.3123828269 -8.0201992213
H 1.7347718345 -1.9325823294 -5.6433041736
C -4.6297799683 3.1281809815 -1.3663381568
O -4.6299970496 3.1758994227 -2.7913403298
C -5.9929881577 2.5874330080 -0.9364388513
C -4.4676899592 4.5991607704 -0.8950008775
O -4.3926327633 4.6497493379 0.5055012187
O -3.3330232447 5.2047864941 -1.4997617578
H -3.9719420350 3.8498801386 -3.0438566369
H -6.0666162048 2.4960779473 0.1503445140
H -6.7791465083 3.2658610138 -1.2806841631
H -6.1881459018 1.6119754719 -1.3909246965
H -5.3229575369 5.1634115643 -1.2835726566
H -4.5494548814 5.5666577535 0.7858521123
H -2.5659486330 4.9665444979 -0.9518515164
