121
# extracted from Terachem optimization
Mn 0.4520716499 0.2779941544 0.2558205623
N 0.7858443748 2.2384652313 0.5837506376
C 2.0498342243 2.5865110860 0.6871866961
C 2.2020289610 4.0593440351 0.8953509131
C 0.7611341611 4.5016953639 0.8979585529
C -0.0047570854 3.4048563213 0.7080434395
H -1.0813286307 3.3397361572 0.6519285699
H 2.7839486272 4.5452641497 0.0985480598
H 2.6987143832 4.3198155823 1.8407507586
N 2.4825988903 0.3162751941 0.3854331052
C 3.0144712768 1.5143789344 0.5788560402
N 4.3391984514 1.7277147691 0.7256444258
C 5.3637365180 0.7398694778 0.3429497290
C 4.7106110758 -0.6188198175 0.3566676603
C 3.3777887972 -0.7619410714 0.3539817230
H 6.1693003532 0.7780116930 1.0852864747
H 4.6489248058 2.6780672330 0.8840091898
H 2.9043058683 -1.7355373178 0.3322923176
H 5.3577974887 -1.4869547478 0.3399572820
C 6.0096091327 1.1057055294 -1.0246304969
O 4.9762606071 1.1418940369 -1.9912594464
C 7.1348618220 0.1447232783 -1.3757975182
C 6.9653262032 -0.8572925917 -2.2535995706
N 8.2838885581 0.3531026027 -0.6064081378
H 6.4473509526 2.1162975151 -0.9035542617
H 5.4008429956 1.1436258504 -2.8652517787
H 7.7773025388 -1.5292828669 -2.5146136030
H 5.9970244626 -1.0504014814 -2.6988163209
H 8.5866009857 1.3200214754 -0.5337276149
H 9.0652269228 -0.2477226716 -0.8473486532
C 0.3681387173 5.9445699839 1.0869003039
O 1.3680330293 6.5096171303 1.9198153594
C -1.0427365553 6.1160379292 1.6417412614
C -1.2618426221 6.3790160911 2.9362628343
N -2.0437546859 5.8814021886 0.6826336125
H 0.4000428587 6.4288422719 0.0900530069
H 1.1071999797 7.4258707697 2.1111817814
H -2.2639638337 6.5295361008 3.3267240867
H -0.4382592395 6.4235084164 3.6378942016
H -1.8774254614 6.3440128428 -0.2080407707
H -2.9758821117 6.1095175520 1.0153763790
N 0.2317805933 -1.7110754839 0.0877642658
C 0.0211502659 -2.3790655409 1.1995490573
C -0.1708935475 -3.8396192007 0.9376072673
C -0.0116774801 -3.8854167745 -0.5635468612
C 0.2229346003 -2.6269205779 -0.9921115404
H 0.3746330210 -2.2588490430 -1.9967685063
H -1.1557410531 -4.1998088274 1.2697512726
H 0.5757511628 -4.4730032275 1.4366693799
N 0.2646157988 -0.3001846055 2.2155253559
C 0.0073885854 -1.5848199879 2.4093582022
N -0.1869898292 -2.1288474171 3.6316517099
C -0.6356276337 -1.3115951350 4.7716317188
C -0.0492613123 0.0656073549 4.5797792423
C 0.3316041017 0.4952051400 3.3670539118
H -0.2492060562 -1.7632801855 5.6906106890
H -0.3757784545 -3.1223944628 3.6738637867
H 0.7274177736 1.4913657451 3.2101712873
H 0.0296093547 0.7114506567 5.4455952094
C -2.1958625739 -1.3143567324 4.8606753255
O -2.6607094992 -0.9160959591 3.5935578060
C -2.6825121467 -0.4542232684 6.0175286764
C -3.1717244178 0.7844858838 5.8362817571
N -2.4368580970 -1.0402843084 7.2612692751
H -2.4955532315 -2.3621130026 5.0635510705
H -3.6218498984 -0.6960397646 3.5974669656
H -3.5009204319 1.3919909217 6.6745372993
H -3.1870783772 1.2360324239 4.8522808233
H -2.6742085694 -2.0243908090 7.3372051809
H -2.7899908161 -0.5193638082 8.0566808772
C -0.1009523126 -5.1781911414 -1.3348553585
O 0.6009915090 -6.1276334451 -0.5421806683
C 0.4333386293 -5.1084460974 -2.7655368455
C 1.7075163608 -5.3981845021 -3.0502317119
N -0.5141471814 -4.6746232791 -3.7338176084
H -1.1712202574 -5.4612836785 -1.3893076531
H 0.6158190511 -6.9704250330 -1.0259241622
H 2.0866606673 -5.3933398972 -4.0678753241
H 2.4021107842 -5.6457779058 -2.2567088975
H -1.4216396052 -5.1254070125 -3.6253042494
H -0.1796804856 -4.8360810218 -4.6824195026
N -1.5335290569 0.5452369040 0.0457894846
C -1.9518683397 0.7446401715 -1.1811785969
C -3.4365192500 0.9519516724 -1.2217296817
C -3.7832596514 0.8528221440 0.2458808670
C -2.6397733779 0.6175093997 0.9225378573
H -2.4783046173 0.4637129421 1.9793017330
H -3.9500951570 0.1876734463 -1.8239267315
H -3.7280180401 1.9247322292 -1.6413449666
N 0.3042123443 0.5937609808 -1.7829812771
C -0.9380360839 0.7229632324 -2.2180350865
N -1.2545234453 0.8817090518 -3.5254982760
C -0.3533458948 0.4057586743 -4.5886577369
C 1.0558425826 0.5771340164 -4.0723698143
C 1.3141634410 0.6321536612 -2.7554124181
H -0.5118856140 1.0278260960 -5.4751436588
H -2.2369363644 0.9544737544 -3.7583157259
H 2.3197585941 0.7143090734 -2.3588738015
H 1.8611670639 0.6171032943 -4.7954353534
C -0.6956400759 -1.0681562630 -4.9766321145
O -0.6434769213 -1.8043311148 -3.7820188576
C 0.2275053710 -1.5706551754 -6.0771680529
C 1.2718940797 -2.3780594768 -5.8260995863
N -0.0528340394 -0.9940005737 -7.3186938922
H -1.7299735416 -1.0557638341 -5.3766313010
H -0.6955536397 -2.7784721640 -3.9386262517
H 1.9317911537 -2.7166199497 -6.6199900286
H 1.5201546576 -2.6622357860 -4.8111030887
H -1.0343370003 -0.9649856071 -7.5769382510
H 0.5126969960 -1.3395403828 -8.0865985289
C -5.1921945944 1.0097043314 0.7565002285
O -5.7405484655 2.0901235775 0.0108461625
C -5.3015658592 1.2374250681 2.2654414468
C -5.3193743608 2.4707674723 2.7832322181
N -5.3404428696 0.0537850435 3.0511312574
H -5.7419650253 0.0782091552 0.5156028398
H -6.6390320067 2.2557899652 0.3423721716
H -5.4377184693 2.6476162349 3.8480664442
H -5.2090232652 3.3340172323 2.1385697210
H -5.9448437133 -0.6649489825 2.6558185743
H -5.6417736867 0.2473339651 4.0044874439
