145
# extracted from Terachem optimization
Mn 0.3263854379 0.0012199692 0.1955772037
O 0.5773153316 2.0657905759 0.1970601107
C 1.9265566412 2.4463871928 0.6359877419
N 2.0277366266 3.8352431454 0.2426261083
C 1.0654866952 4.0493346492 -0.7615695777
C 0.2095063980 3.0294279359 -0.8065349330
H -0.6897007899 2.8313258623 -1.3582117938
H 2.9541277033 4.1946490608 0.0280263465
H 1.9584541049 2.3038074872 1.7204929310
O 2.4546048063 0.1555447565 0.2241826500
C 2.9361852549 1.5091282704 -0.0417552904
S 4.6050788100 1.7709810540 0.6324576295
C 5.4471650605 0.5045949666 -0.4342629197
C 4.6213974844 -0.7491628336 -0.4295200603
C 3.3320014548 -0.8799065692 -0.1219023125
H 6.3950089947 0.3141161522 0.0796585531
H 2.8136444369 -1.8299299968 -0.0998349615
H 5.1317612710 -1.6783241699 -0.6562019854
H 2.9511445846 1.6458830762 -1.1257264169
C 5.8405363716 1.1054713127 -1.8252025159
O 4.6599057154 1.2302699707 -2.5911795414
O 6.4584794351 2.3496562451 -1.6339453054
C 6.9209421423 0.2823478224 -2.6214452998
N 8.1524639647 0.3401334985 -1.8855412975
C 6.5542444559 -1.1778615257 -2.9040072241
O 6.9095074681 0.9998510596 -3.8794224498
H 4.9850935287 1.4827673647 -3.4796699418
H 5.8155495060 2.9436106316 -1.2096552816
H 8.8810070185 -0.2258572512 -2.3147552451
H 8.4772585983 1.3015718482 -1.8165023848
H 5.5279106371 -1.2579988400 -3.2698560312
H 7.2206314324 -1.5675467103 -3.6837396811
H 6.6924254590 -1.8153841944 -2.0279777015
H 7.4589524638 0.5186683717 -4.5184146039
C 1.0773222019 5.3167522528 -1.5846375808
O 2.4263740258 5.6047060501 -1.8186961594
O 0.3740959029 5.0807413115 -2.7952668544
C 0.3645645688 6.5665630564 -0.9010705555
N -1.0470362351 6.6201775178 -1.1704583879
C 0.6398634498 6.6821583231 0.5963958702
O 1.0095981177 7.6786375153 -1.5476690915
H 2.4339336947 6.5677978169 -2.0205397320
H 1.0308528196 4.7559992998 -3.4338992824
H -1.6187093407 6.3013805029 -0.3969497804
H -1.2937722959 6.1338772652 -2.0269953490
H 1.7145288696 6.7335197779 0.7849771332
H 0.1859879631 7.6094310194 0.9569143270
H 0.2267554195 5.8380555763 1.1577592239
H 0.2982688110 8.2102524907 -1.9424026352
O 0.2960739237 -2.1029596254 0.4092914959
C 0.6747883428 -2.4892446739 1.7854347299
N 0.2021740674 -3.8583019707 1.8835686626
C -0.8914405851 -3.9314010819 0.9946419048
C -0.8263709288 -2.9444530657 0.1043275314
H -1.4182056721 -2.6809002621 -0.7508507537
H -0.0119384815 -4.1731428938 2.8276664952
H 1.7594845723 -2.3944280958 1.8637496993
O 0.2784260347 -0.1852675040 2.3310984422
C -0.0726077929 -1.5435783546 2.7227124599
S 0.2520613942 -1.8597395005 4.4812629161
C -1.0583934905 -0.6712776046 5.0662686922
C -0.8710872984 0.6243828850 4.3235140796
C -0.2725297133 0.8140511476 3.1467676969
H -0.8335086087 -0.5180456163 6.1253729619
H -0.1329739844 1.7865917785 2.6927343110
H -1.2147435242 1.5281677849 4.8151007629
H -1.1424269620 -1.6617905238 2.5568054422
C -2.4868137654 -1.3045419982 5.0128686495
O -2.8455490012 -1.4248332831 3.6593481913
O -2.4710160864 -2.5759477343 5.6339070260
C -3.6131407279 -0.5436166534 5.8002745947
N -3.2369175594 -0.5089899430 7.1872246762
C -3.9270662306 0.8683330718 5.3071689940
O -4.8153121100 -1.2910248628 5.4941456373
H -3.7888533643 -1.6866518255 3.6284426717
H -1.9646928687 -3.1798694877 5.0628381309
H -3.9496788636 -0.0462366416 7.7470737872
H -3.0933835260 -1.4465032387 7.5560509221
H -3.9977911413 0.9014732899 4.2174563289
H -4.8982919150 1.1585973173 5.7188274503
H -3.1837509097 1.5887308251 5.6512693993
H -4.6846371356 -2.1862037087 5.8551522461
C -1.9609268526 -4.9750320839 1.1627809177
O -2.1167919196 -5.1423932363 2.5554297882
O -3.1313707850 -4.4371966294 0.5608610699
C -1.6637032017 -6.3589637905 0.4685074024
N -1.5588682801 -6.2898435111 -0.9663939716
C -0.4465536350 -7.0765637946 1.0498178102
O -2.8799719100 -7.0515414745 0.8018898000
H -2.6350210527 -5.9595682686 2.6828758848
H -3.7461984853 -5.1952645860 0.4717263570
H -0.6157724739 -6.0782764498 -1.2773533164
H -2.2045347425 -5.6085632553 -1.3588599889
H -0.5647554924 -7.2287142917 2.1241525493
H -0.3449703866 -8.0540430774 0.5687052933
H 0.4751931806 -6.5101164876 0.8804179122
H -2.9295729310 -7.8372932977 0.2296741781
O -1.7045634266 0.2428472740 -0.0115339915
C -2.2357649779 0.3154525418 -1.3899799667
N -3.5184138453 -0.3491003548 -1.3344581922
C -3.7795747820 -0.6711270476 0.0137452620
C -2.7720700038 -0.2827060417 0.7930903507
H -2.6179056520 -0.2817605837 1.8583031029
H -3.7109482546 -1.0993738046 -1.9932825687
H -2.3476619370 1.3878766483 -1.5976452120
O 0.0936851278 -0.0252111038 -1.9335355550
C -1.2568045993 -0.3259153263 -2.3783258987
S -1.5834926712 0.3111499133 -4.0532794529
C -0.3338903290 -0.7663681414 -4.9028551080
C 0.9363037574 -0.7456474594 -4.1019169945
C 1.1076056254 -0.3877686815 -2.8299588598
H -0.1542719740 -0.2627671796 -5.8581600415
H 2.0816430261 -0.3081616930 -2.3655054727
H 1.8544044248 -0.9713475173 -4.6323138133
H -1.3464031517 -1.4130799863 -2.4045769030
C -0.9616159575 -2.1472588766 -5.2817547857
O -1.1505545560 -2.8892519384 -4.0934660361
O -2.1819228654 -1.9262042163 -5.9408546954
C -0.1362985618 -2.9982832431 -6.3158233492
N -0.1294677692 -2.2933231470 -7.5667979597
C 1.3003098486 -3.3221975051 -5.8943567302
O -0.9011971137 -4.2300911145 -6.2996808106
H -1.4045317944 -3.7761494662 -4.4237503058
H -2.7805445644 -1.4767443765 -5.3194529892
H 0.4327091348 -2.7701636500 -8.2683056212
H -1.0787905181 -2.1928679951 -7.9183416032
H 1.3401090425 -3.6405356383 -4.8499885118
H 1.6790051670 -4.1447236987 -6.5141939195
H 1.9719471133 -2.4761581381 -6.0523351074
H -0.3997424063 -4.9146705905 -6.7703545404
C -5.0330822661 -1.4389918948 0.3871911081
O -5.2885483644 -2.2564628943 -0.7259934163
O -4.7886155254 -2.2085869506 1.5507849051
C -6.3136926133 -0.5459282817 0.6932767194
N -6.4417037614 -0.1764195537 2.0745543950
C -6.4084180127 0.6817227182 -0.2108499005
O -7.4031945501 -1.4236716922 0.3415719657
H -6.2487088078 -2.4575186712 -0.6567695989
H -4.2008378541 -2.9487507829 1.2860270825
H -6.2204852355 0.7917557964 2.2714375913
H -5.9701135674 -0.8027133612 2.7178395161
H -6.3963386935 0.3813759700 -1.2607017199
H -7.3563408660 1.1879755062 -0.0083331377
H -5.5845453210 1.3818481378 -0.0359486975
H -7.9621649607 -1.4780843993 1.1344115976
