106
# extracted from Terachem optimization
Mn -0.1361287880 -0.1437568962 -0.1627047218
O 0.5727892759 2.6062753701 -0.1930782344
C 1.8188786793 2.3388787180 -0.9015440803
N 2.4357632795 3.6420669373 -0.9571745282
C 1.5935886719 4.5957152238 -0.4791821145
C 0.4729761799 3.9551156770 -0.0063798409
H -0.4240699391 4.3209554703 0.4697927002
H 3.2452715115 3.9146404071 -1.5134601671
H 1.5407093258 1.9892460965 -1.9078409227
N 1.9181789185 0.1023214412 0.0938747461
C 2.5988729814 1.2522582012 -0.1734422502
C 3.9356884339 1.4129339044 0.1446875257
C 4.6528824352 0.3606769251 0.7326184818
C 3.9613835846 -0.8225786775 0.9956759789
C 2.6055241560 -0.9011125906 0.6818862129
H 4.4660752878 2.3402174737 -0.0461220578
H 2.0399679738 -1.7993572464 0.9077275088
H 4.4464743791 -1.6799830173 1.4492115703
C 6.1387733727 0.6188667797 1.0257337096
O 6.5522748875 1.7284410512 0.7541755322
C 6.9870623593 -0.4612903397 1.6485074050
C 6.8495494445 -0.4720984789 3.1890943747
H 6.7308098969 -1.4447003624 1.2357894315
H 8.0229569274 -0.2445609452 1.3744843689
H 5.8264311089 -0.6929152963 3.5155812082
H 7.5075053481 -1.2389020682 3.6062422059
H 7.1452284107 0.4934070500 3.6088564521
C 2.0369895436 6.0469863190 -0.6017220182
O 3.0878640453 6.1993637705 -1.1910547326
C 1.1747650956 7.1309226657 -0.0159985271
C 1.7615366643 8.5323315335 -0.1944670189
H 0.1792186286 7.0542639031 -0.4824265584
H 1.0184296499 6.8957815326 1.0489313530
H 1.8871201236 8.7753694985 -1.2527357041
H 1.0916156017 9.2712052228 0.2517268331
H 2.7381307891 8.6147388429 0.2895608471
O -0.7925314958 -2.3969580758 0.0233123707
C -1.5622031818 -2.5480095930 1.2570386780
N -1.4047385060 -3.9472430462 1.5784789530
C -0.7785139218 -4.5962814637 0.5335707294
C -0.3831515659 -3.6767333785 -0.3765406516
H 0.1465683758 -3.7436563826 -1.3129272552
H -2.0706137997 -4.4780051367 2.1350990333
H -2.6066282828 -2.2856334081 1.0242439386
N -0.3927049717 -0.4608719353 1.8754239377
C -1.0124860297 -1.5878205268 2.3114861297
C -1.1993584780 -1.8491729430 3.6600287469
C -0.7574086057 -0.9341620263 4.6229636692
C -0.1175725203 0.2245778844 4.1717373889
C 0.0521161473 0.4150344398 2.8042997903
H -1.6845228634 -2.7562944812 4.0067981219
H 0.5585334887 1.2971265731 2.4264687085
H 0.2556029912 0.9743569781 4.8605556763
C -1.0310875900 -1.2871973556 6.0926789692
O -1.6291748106 -2.3246163202 6.2961699471
C -0.5324477851 -0.3820415497 7.1923988684
C 0.9503317129 -0.6637339378 7.5280210773
H -0.6676039162 0.6719063568 6.9196158193
H -1.1530977918 -0.5809336051 8.0699367711
H 1.6136160347 -0.4791257662 6.6745046429
H 1.2678572122 -0.0135422787 8.3474451043
H 1.0822501102 -1.7011665835 7.8477807996
C -0.7187301054 -6.1067518664 0.5889591666
O -1.3168330685 -6.6151615091 1.5167591569
C 0.0359027451 -6.8531334458 -0.4826424252
C 0.0712779965 -8.3650088733 -0.2543347069
H -0.4356090888 -6.6122785150 -1.4487679220
H 1.0519986219 -6.4328650942 -0.5370650446
H -0.9378458375 -8.7843553576 -0.2336994134
H 0.6289339414 -8.8489245644 -1.0601371229
H 0.5551600793 -8.6086543403 0.6952496103
O -2.1466424956 0.1536144912 -0.3867192616
C -2.5501797981 0.3909969239 -1.7841702507
N -2.8149816757 1.8190404382 -1.7701498706
C -3.3281396333 2.0755374539 -0.4837003441
C -2.9150866009 1.1170859426 0.3563335471
H -3.0110009662 0.9381818863 1.4137218323
H -3.3735399626 2.2095934264 -2.5272071573
H -3.4579747978 -0.2126876659 -1.9503780992
N -0.1989722456 -0.1644968265 -2.1968420876
C -1.4469728171 -0.0338087220 -2.7188915916
C -1.7122738033 -0.2532022851 -4.0607911112
C -0.6713543433 -0.6009642964 -4.9323973264
C 0.6147766255 -0.7257513244 -4.3952166396
C 0.8051235696 -0.5089024624 -3.0343175970
H -2.7161973230 -0.1719644818 -4.4695976982
H 1.7828042193 -0.6220409976 -2.5786421251
H 1.4645303583 -0.9982655192 -5.0113039475
C -1.0483577117 -0.8468437017 -6.4020702003
O -2.2228473524 -0.7212513364 -6.6836265232
C 0.0202359291 -1.1901205627 -7.4099588262
C 0.7262574636 0.0781634935 -7.9441855526
H 0.7546903687 -1.8821689828 -6.9795997264
H -0.4791153916 -1.7069746369 -8.2336616736
H 1.2413154682 0.6355980195 -7.1528490193
H 1.4702168345 -0.2089615843 -8.6917110987
H 0.0051900444 0.7469447410 -8.4223509007
C -4.2001466183 3.2898961259 -0.2953966377
O -4.4013608022 3.9601932006 -1.2908562264
C -4.7759016676 3.5792117039 1.0720544010
C -5.6541007692 4.8311948267 1.1052295763
H -5.3457173230 2.6922313215 1.3876068216
H -3.9398765244 3.6573922992 1.7850591710
H -6.5011600802 4.7315477370 0.4220332968
H -6.0435003024 4.9870726414 2.1145056822
H -5.0907749228 5.7203534909 0.8098076614
