142
# extracted from Terachem optimization
Mn 0.3587708828 0.1334607058 0.4432132287
O 0.6198238088 2.3473878449 0.4870689981
C 1.9310860767 2.5976414815 -0.1044287528
C 2.4010050050 4.0393794924 0.0511347366
C 2.3951691454 4.5125317729 1.5132093853
C 1.0858986224 4.0834293478 2.1285801595
C 0.3147882818 3.1265286570 1.6165239169
H 3.2235986503 4.0055389528 2.0330507046
H 1.7216217799 4.6614422469 -0.5398214806
H 3.3902807680 4.1438337105 -0.3954725854
H -0.6471223070 2.8334257544 2.0107733701
H 0.7284703704 4.5866684280 3.0195749101
H 1.7769931736 2.3906744952 -1.1688029799
N 2.3893666153 0.3282242802 0.6304217418
C 2.8649650658 1.5123601695 0.4075074676
O 4.1281846798 1.8782050565 0.5650242973
C 5.1908706154 0.8573763706 0.6406919486
C 4.6129194694 -0.4319106056 1.1479933149
C 3.2963954396 -0.6449185355 1.1265624746
H 5.9033041264 1.2642096239 1.3594905492
H 2.8357580232 -1.5622968282 1.4698495734
H 5.3076731615 -1.1769874366 1.5113600750
C 5.9031656895 0.8019287971 -0.7368136760
O 4.9108780304 0.3887086796 -1.6972404623
C 6.4966824904 2.1627380977 -1.1012562481
C 7.0188431655 -0.2834742822 -0.7089253816
O 7.7335977372 -0.1052158668 0.4771298696
O 6.4842009823 -1.5867908144 -0.7346867473
H 5.1659370556 0.7503629229 -2.5617461285
H 7.2957418957 2.4263648345 -0.4024887388
H 6.9393864986 2.1270590469 -2.1044274967
H 5.7376575061 2.9488993356 -1.0852611223
H 7.6701402107 -0.1352690358 -1.5891254893
H 8.4786796084 -0.7287756308 0.4847620059
H 5.7834733576 -1.5828551325 -1.4109962671
C 2.7017974539 6.0505285827 1.6033617268
O 3.8146851445 6.3318381023 0.7583602098
C 1.5409072861 6.9220375418 1.1247771604
C 3.1428527148 6.4855636124 3.0277508823
O 2.1681354130 6.1231231371 3.9695837232
O 4.4119848946 5.9381390438 3.3601865760
H 4.6119181182 6.1365040900 1.2863402107
H 0.6447139166 6.7637412478 1.7300784169
H 1.8266840174 7.9759849233 1.1890219029
H 1.3024240005 6.7170240041 0.0769063590
H 3.3125099719 7.5680430089 3.0032683012
H 2.3627799509 6.5872569491 4.8007213448
H 4.2569268533 5.0364602615 3.6898085992
O -0.1874272687 -1.9947898424 0.5488266054
C -0.9550461455 -2.2500317639 1.7621822517
C -1.0019485040 -3.7262060906 2.1481783681
C 0.3875289247 -4.3847530381 2.1911537264
C 1.1070417628 -4.0189802920 0.9154007048
C 0.7887155999 -2.9444031539 0.1971853488
H 0.9352333017 -3.9687251243 3.0526202148
H -1.6187846764 -4.2317650219 1.3994256837
H -1.5126694506 -3.8288976861 3.1057774459
H 1.2399034410 -2.6618297713 -0.7458325472
H 1.8958145762 -4.6607712692 0.5407549543
H -1.9700173982 -1.9167931708 1.5201131168
N 0.1796031404 -0.2083475580 2.4817514827
C -0.4413930952 -1.2943056460 2.8242020612
O -0.6905554632 -1.6839969864 4.0624776242
C -0.6004910538 -0.7205924569 5.1772816821
C 0.3872644068 0.3478125805 4.8201757415
C 0.7275054703 0.5571376254 3.5482153334
H -0.2325852345 -1.3165728886 6.0136719342
H 1.4383651475 1.3138913325 3.2489175351
H 0.8028647336 0.9349722469 5.6281215476
C -2.0389590504 -0.2613301622 5.5334190287
O -2.5830947008 0.3629390462 4.3515514776
C -2.8937302336 -1.4512279318 5.9709031935
C -1.9940451164 0.8148320336 6.6545839829
O -1.1213689769 0.3507031845 7.6397160667
O -1.5267753200 2.0549850092 6.1755314304
H -3.5444163857 0.2265957525 4.3623756596
H -2.5089615568 -1.8704127970 6.9048969572
H -3.9262642453 -1.1309463995 6.1579924381
H -2.9053874310 -2.2359162745 5.2101110087
H -3.0166832256 0.9362476530 7.0555450551
H -1.1359516205 0.9746251830 8.3843480099
H -2.0200263040 2.2335294473 5.3556167183
C 0.2587724371 -5.9206231611 2.4809172923
O -0.5739961012 -6.0791574740 3.6282254689
C -0.3917046171 -6.7006016749 1.3392773505
C 1.6103620088 -6.5803448465 2.8665800865
O 2.5340704613 -6.4650561235 1.8163167606
O 2.1227969405 -6.0359896399 4.0749778883
H -0.0028637399 -5.9299235178 4.4047740545
H 0.1588018049 -6.5721024316 0.4039973079
H -0.4133021923 -7.7657793369 1.5875761019
H -1.4286998780 -6.3856763491 1.1928622963
H 1.3951776022 -7.6274251075 3.1082760176
H 3.2664168983 -7.0808368804 1.9852614157
H 2.6168480940 -5.2328563086 3.8378934521
O -1.7661029569 0.1985436359 0.2064477126
C -2.1396192799 -0.1664404033 -1.1607314269
C -3.4334102974 0.4923516839 -1.6333027642
C -3.4705372951 1.9978665421 -1.3111967549
C -3.2376554802 2.1211382405 0.1753257601
C -2.4776668801 1.2464279723 0.8275762820
H -2.6373158673 2.4771779477 -1.8516414044
H -4.2650520517 -0.0050473939 -1.1260786310
H -3.5525484757 0.3171856994 -2.7030106664
H -2.3196090460 1.2138807560 1.8993241539
H -3.7268782517 2.9023628906 0.7437160323
H -2.2818729692 -1.2541758757 -1.1263095740
N 0.2661237694 0.1413220079 -1.5838781393
C -0.9344550088 0.0454796257 -2.0660617167
O -1.2572086562 0.0315533361 -3.3441174128
C -0.2447668746 -0.0135992984 -4.4217927982
C 1.1258494142 0.1594740988 -3.8433746183
C 1.3301120397 0.2148098697 -2.5273553472
H -0.5061972255 0.8190257547 -5.0788472801
H 2.3158069776 0.2947439639 -2.0861824373
H 1.9463240636 0.1892963202 -4.5483142978
C -0.4674644965 -1.3273556098 -5.2195286939
O -0.0786713700 -2.4013410672 -4.3487946651
C -1.9240808458 -1.4625029762 -5.6656354413
C 0.4715727578 -1.3650424885 -6.4609535916
O 0.3550623493 -0.1388838948 -7.1128642270
O 1.8221582474 -1.5669413583 -6.1045147665
H -0.6029647037 -3.1846364670 -4.5820852591
H -2.2005133625 -0.6432804270 -6.3352186636
H -2.0593353980 -2.3984895614 -6.2211446460
H -2.6046769055 -1.4669959467 -4.8106975499
H 0.1381271428 -2.1965070788 -7.1075143297
H 0.8928189743 -0.1666637078 -7.9217302427
H 1.8381867875 -2.3484120958 -5.5234698338
C -4.7783345225 2.6564477756 -1.8683685725
O -4.9035027147 2.2817939430 -3.2369998125
C -6.0426728501 2.1823798897 -1.1523848805
C -4.7109090347 4.2080759724 -1.8637718447
O -4.4585548707 4.6782891284 -0.5664021643
O -3.7303244503 4.6745990717 -2.7827095128
H -4.3467328546 2.9052184714 -3.7404750018
H -6.0049496049 2.4009473679 -0.0818732087
H -6.9157270139 2.6849573435 -1.5788913579
H -6.1913074048 1.1077793574 -1.2921896226
H -5.6620116437 4.5798443934 -2.2614470286
H -4.6686851144 5.6264953772 -0.5393731779
H -2.8836446482 4.6949416856 -2.3049790436
