73
# extracted from Terachem optimization
Mn 0.1382859274 0.0111225664 0.0938445115
N 0.4876951544 2.3156313434 -0.1225664991
C 1.7886442115 2.5836930557 -0.1804858240
S 2.1688995618 4.2591823411 -0.3963501794
C 0.4673991451 4.6203858981 -0.4186823617
C -0.2538403716 3.4560465519 -0.2517853315
H -1.3341699780 3.4209381560 -0.2208501530
N 2.3978751261 0.2350920265 0.0329921413
C 2.7328523214 1.5057206013 -0.0816142037
O 4.0593470618 1.7004559052 -0.1090615621
C 4.6250653205 0.4478253153 -0.0081770587
C 3.5981042151 -0.4512960412 0.0861116712
H 3.6573166317 -1.5243968336 0.1766735933
C 6.1168770732 0.3287068595 -0.0269162770
N 6.5015809462 -0.9586843171 0.5167922624
H 6.5456794636 1.1964558386 0.5031263644
H 6.4686736267 0.4070120313 -1.0636602391
H 7.3625155351 -1.3159974461 0.1144394965
H 6.5801388480 -0.9602218770 1.5297706644
C -0.0658588887 6.0185036039 -0.6254878932
N -1.4210601908 6.1149991383 -0.1069359257
H 0.6369577933 6.7491300134 -0.1921153607
H -0.0835454087 6.2242342345 -1.7034929004
H -1.4332446570 6.3242814586 0.8883680631
H -1.9529215294 6.8360852224 -0.5868854713
N -0.0974654234 -2.2963693551 0.4433058202
C -0.2853991253 -2.5618353963 1.7321758234
S -0.4852987889 -4.2426667283 2.0982174486
C -0.3124470172 -4.6096657790 0.4065198761
C -0.1082501456 -3.4428754860 -0.3000558930
H 0.0352282115 -3.4099139076 -1.3714372357
N -0.1800535006 -0.2066614100 2.3395884801
C -0.3187073179 -1.4754963381 2.6718742440
O -0.5066472997 -1.6582654924 3.9873761417
C -0.4899916241 -0.3992310354 4.5473281402
C -0.2823214659 0.4916159019 3.5302231829
H -0.2115583656 1.5662180628 3.5890797654
C -0.6954059968 -0.2649725974 6.0239800130
N -0.2272725477 1.0381485031 6.4550206764
H -0.2078746267 -1.1174794217 6.5269694741
H -1.7664423226 -0.3589184539 6.2444472816
H -0.7376822534 1.3932833224 7.2577329173
H 0.7677371154 1.0570556242 6.6601609556
C -0.4072046384 -6.0155882999 -0.1391538488
N 0.2411383686 -6.0887406180 -1.4371760516
H -0.0069741421 -6.7263479104 0.6029080858
H -1.4677874472 -6.2718469633 -0.2568558130
H 1.2432851783 -6.2436320461 -1.3616711406
H -0.1544678115 -6.8225211721 -2.0183510824
N -2.1575667438 0.3362918890 -0.2843835027
C -2.4563440225 0.1462216892 -1.5657114843
S -4.1388715797 0.3136640759 -1.9448570818
C -4.4600057131 0.6533109133 -0.2698672904
C -3.2781034510 0.6249391963 0.4422005816
H -3.2181624747 0.8095829219 1.5063207645
N -0.1415081932 -0.3268951698 -2.1650100754
C -1.4103249001 -0.1841685058 -2.4931749231
O -1.6444253101 -0.3880468659 -3.7995198783
C -0.4215659282 -0.6902700444 -4.3559047054
C 0.5025332484 -0.6453031628 -3.3468014972
H 1.5640535331 -0.8268429890 -3.4078538925
C -0.3471753397 -0.9889344894 -5.8208346515
N 1.0222541976 -0.8303536724 -6.2704604275
H -1.0797405546 -0.3543226433 -6.3479697850
H -0.6695442486 -2.0241793818 -5.9912904427
H 1.2572701158 -1.4478154003 -7.0414110395
H 1.2500177969 0.1254824324 -6.5289178450
C -5.8514629227 0.9001259538 0.2653945024
N -5.7778124945 1.6432176382 1.5115602346
H -6.4653948097 1.3847863961 -0.5118602388
H -6.3252775757 -0.0707646518 0.4584451813
H -5.7217355275 2.6471913032 1.3608298698
H -6.5737593640 1.4530199052 2.1140489402
