127
# extracted from Terachem optimization
Mn 0.0870327553 -0.0064708900 0.0910483998
N 0.4739498236 2.2350095296 -0.1571659492
C 1.7347796196 2.5269245657 -0.3436594793
C 1.9748570121 3.9332249764 -0.6066106401
C 0.7658849525 4.5552944279 -0.5816864899
C -0.2567050001 3.4887929031 -0.2922845612
H -0.8196577937 3.6996959338 0.6282946001
H -1.0037743005 3.4034943665 -1.0944825098
H 2.9432975137 4.3801322915 -0.7920780315
N 2.3299964082 0.2044845100 -0.1493443559
C 2.7384934382 1.4416206897 -0.2784466948
C 4.1815055477 1.5752729731 -0.3260302627
C 4.7032997858 0.3252868580 -0.2043206089
C 3.5347059988 -0.6155730004 -0.0870814267
H 3.5526453555 -1.1843805591 0.8539273100
H 3.5279549173 -1.3618187853 -0.8944615513
H 4.7203295451 2.5088311041 -0.4270853828
C 6.1417262834 -0.1166706060 -0.1562223748
C 6.8137812149 0.3785010546 1.1449330867
C 6.9408731068 0.3403030149 -1.4012335084
C 6.4368096391 -0.2388452826 -2.7256025029
H 6.1510385380 -1.2157882328 -0.1406151032
H 7.8314889871 -0.0186077045 1.2104988957
H 6.8746184540 1.4720560363 1.1635212317
H 6.2656513100 0.0531139405 2.0355815961
H 6.9412537480 1.4376993685 -1.4445825784
H 7.9846427251 0.0416470913 -1.2467668316
H 5.4151235107 0.0913014300 -2.9524499917
H 7.0753123418 0.0801430840 -3.5552088567
H 6.4439376869 -1.3354774004 -2.7082907407
C 0.4290241938 6.0083246031 -0.7852000729
C 0.9925357927 6.5313580728 -2.1221974745
C 0.9214129967 6.8799756070 0.4011152378
C 0.3335616589 6.4982569439 1.7623686882
H -0.6664670356 6.0934606453 -0.8191240164
H 0.6734927973 7.5656307148 -2.2848744166
H 2.0881007638 6.5165407523 -2.1227411738
H 0.6440740685 5.9325016261 -2.9700786364
H 2.0177346402 6.8363059741 0.4409241954
H 0.6614731088 7.9197514329 0.1694788972
H 0.6374165723 5.4884249227 2.0657582643
H 0.6764865457 7.1891023848 2.5387366670
H -0.7627257334 6.5369459278 1.7496199977
N -0.1613164270 -2.2480062952 0.4785662150
C -0.3485283728 -2.5395630232 1.7393664213
C -0.6092441621 -3.9461838111 1.9799324254
C -0.5819109296 -4.5689189522 0.7713581964
C -0.2934359924 -3.5024573704 -0.2515364396
H 0.6280434050 -3.7119343763 -0.8135416172
H -1.0951093535 -3.4190369311 -0.9993830212
H -0.7948374473 -4.3929034657 2.9484319517
N -0.1549970011 -0.2168648159 2.3338301750
C -0.2860352822 -1.4536928097 2.7426415401
C -0.3387444287 -1.5863943072 4.1855597646
C -0.2185755294 -0.3360979892 4.7069800340
C -0.0967945308 0.6039622822 3.5382103804
H 0.8443415887 1.1724620462 3.5591871767
H -0.9038384009 1.3505431779 3.5281032179
H -0.4421824837 -2.5195344353 4.7246502207
C -0.1755679759 0.1067972625 6.1452737639
C 1.1238695851 -0.3868390030 6.8217923552
C -1.4227540831 -0.3507144486 6.9406702409
C -2.7459038154 0.2278256296 6.4327139138
H -0.1608589258 1.2059334136 6.1539692855
H 1.1859762947 0.0112235645 7.8393442927
H 1.1430847426 -1.4803269596 6.8835989329
H 2.0159566201 -0.0612416180 6.2761315164
H -1.4656072596 -1.4481300414 6.9410321166
H -1.2715989911 -0.0519307180 7.9848903189
H -2.9699357292 -0.1026059818 5.4104889487
H -3.5771535798 -0.0912761050 7.0690252236
H -2.7289885928 1.3244651682 6.4396320476
C -0.7824077143 -6.0225393223 0.4352263920
C -2.1189080163 -6.5477537960 0.9979146901
C 0.4050911025 -6.8916331808 0.9292794787
C 1.7660245090 -6.5082555163 0.3417923118
H -0.8151811715 -6.1084945233 -0.6602360312
H -2.2793722663 -7.5824929614 0.6792720246
H -2.1203676634 -6.5323844084 2.0934706326
H -2.9676364330 -5.9506781611 0.6484626184
H 0.4441711913 -6.8466776362 2.0255753380
H 0.1753716841 -7.9320915992 0.6703639632
H 2.0674879110 -5.4975312176 0.6446099863
H 2.5433878261 -7.1973482360 0.6859885294
H 1.7539862548 -6.5482698938 -0.7544545783
N -2.1641925982 0.3144306788 -0.2646591158
C -2.5335722869 0.1428470911 -1.5075163721
C -3.9660027784 0.2681162144 -1.7108884498
C -4.5202805980 0.5327574663 -0.4984432969
C -3.3856316051 0.5697568109 0.4896005188
H -3.3194032006 1.5385249112 1.0052568184
H -3.5011256625 -0.1880469781 1.2781047050
H -4.4764644419 0.1618159160 -2.6597897014
N -0.2654669929 -0.3281190247 -2.1606236655
C -1.5080018156 -0.1578173483 -2.5316410159
C -1.7095609913 -0.2844357410 -3.9642333887
C -0.4962468069 -0.5486554794 -4.5168052165
C 0.4904541360 -0.5839009834 -3.3809278129
H 1.2784148294 0.1745152436 -3.4961443846
H 1.0069007473 -1.5521400716 -3.3132155323
H -2.6579295927 -0.1792567746 -4.4759118717
C -0.1276569409 -0.7806471791 -5.9584387264
C -0.6097428614 0.3783544464 -6.8546083066
C -0.6710259024 -2.1395939814 -6.4751930278
C -0.1505163264 -3.3668080289 -5.7222801331
H 0.9691984347 -0.8236925395 -6.0181479596
H -0.2716509289 0.2207518450 -7.8834974263
H -1.7036317709 0.4399514798 -6.8689064187
H -0.2192582476 1.3427847337 -6.5136665332
H -1.7682852856 -2.1174144741 -6.4429366203
H -0.3949613698 -2.2185632699 -7.5335269617
H -0.4752187658 -3.3689775941 -4.6738974291
H -0.5237825707 -4.2877910517 -6.1807982594
H 0.9454715788 -3.4116695980 -5.7406116421
C -5.9626170148 0.7638389228 -0.1320593868
C -6.8571986615 -0.3960355189 -0.6150111586
C -6.4795362604 2.1221588301 -0.6768478558
C -5.7286763215 3.3502043120 -0.1553336705
H -6.0240633214 0.8072895226 0.9646862303
H -7.8866091575 -0.2393245038 -0.2780937401
H -6.8702263844 -0.4577795595 -1.7089094040
H -6.5158204197 -1.3601082252 -0.2240276279
H -6.4451601036 2.0996340902 -1.7740372340
H -7.5384657196 2.2003070774 -0.4028448961
H -4.6795486594 3.3528997696 -0.4776104806
H -6.1869686184 4.2706501385 -0.5301976747
H -5.7495677153 3.3956912081 0.9405809269
