115
# extracted from Terachem optimization
Mn 0.0402914546 -0.0596511668 -0.0715638145
N 0.3924503995 2.2134010341 -0.1460332164
C 1.6760451031 2.4484112311 -0.0911191753
C 2.0170736674 3.8544951236 -0.1779285186
C 0.8428852016 4.5327657492 -0.2853899561
C -0.2587411749 3.5123332512 -0.2624732244
H -0.9150578807 3.7045925336 0.5995408131
H -0.9005652687 3.5418998544 -1.1532952277
H 3.0087317685 4.2879490193 -0.1568567009
N 2.0435702814 0.0705690764 0.0637212979
C 2.5841437649 1.2840135967 0.0755031344
N 3.8876042298 1.4967387327 0.2419729638
C 4.9273543910 0.4542925783 0.4565729990
C 4.2413142090 -0.8856900580 0.4309982364
C 2.9241549085 -1.0255365606 0.2511991496
H 5.3630736750 0.6168373574 1.4506198651
H 4.2073826716 2.4582896627 0.2644160500
H 2.4400301994 -1.9923292141 0.2369658777
H 4.8744804614 -1.7509165213 0.5875534477
C 6.0719859681 0.6189801771 -0.5818090988
C 5.6659903496 0.3057275888 -2.0323593457
C 7.2588440522 -0.2368252135 -0.1365855359
O 7.2156358007 -1.0523943544 0.7607201570
O 8.3464860854 0.0270957958 -0.8699385385
H 6.4146705243 1.6631033632 -0.5367142897
H 6.5101104554 0.4824463149 -2.7021904552
H 5.3572755977 -0.7393442851 -2.1430726747
H 4.8402426247 0.9496488339 -2.3558089492
H 9.0768896901 -0.5423664411 -0.5544361082
C 0.6194328871 6.0164437986 -0.3761087328
C 1.9167151643 6.8382090523 -0.4783437014
C -0.3059411022 6.4799593940 0.7733951084
O -1.0005149452 5.7446174052 1.4455422311
O -0.2729855886 7.8063926786 0.9068380636
H 0.0254005573 6.2066591515 -1.2855703650
H 1.6819994907 7.8942805328 -0.6149640002
H 2.5235476100 6.7458292376 0.4281968008
H 2.5091556096 6.5090617710 -1.3374129792
H -0.8932625073 8.0614620830 1.6191456653
N -0.1540719300 -2.3108290324 0.2443958130
C -0.2516279114 -2.5723713916 1.5210910131
C -0.3231037444 -3.9874175784 1.8228209862
C -0.2556396993 -4.6424610435 0.6314538958
C -0.1388945232 -3.5968694248 -0.4405983060
H 0.7981659080 -3.7405674776 -0.9980988348
H -0.9467429734 -3.6430339190 -1.1833193178
H -0.4023064771 -4.4419890677 2.8019750554
N -0.2073157019 -0.2024916722 1.9271414618
C -0.2543582498 -1.4181983683 2.4561180752
N -0.3036065508 -1.6396968876 3.7691114576
C -0.2590667208 -0.6014222486 4.8358045508
C -0.2417693239 0.7439912011 4.1579404871
C -0.2117324596 0.8902842564 2.8294238085
H 0.6759665080 -0.7376902673 5.3947407469
H -0.3265611892 -2.6034489658 4.0820347377
H -0.1822514512 1.8600026929 2.3521660259
H -0.2299663906 1.6089547234 4.8100025470
C -1.4288097528 -0.8144477860 5.8345823505
C -2.8247465344 -0.5490534145 5.2448376916
C -1.1722219887 0.0461780501 7.0735631384
O -0.3230345026 0.9099857631 7.1379783077
O -2.0078948991 -0.2788075897 8.0665331642
H -1.3905639392 -1.8596823182 6.1744011174
H -3.5925247385 -0.7575075136 5.9931596970
H -2.9323899556 0.4929725150 4.9257728132
H -3.0115132685 -1.1986322799 4.3817545596
H -1.8150830553 0.2963760919 8.8342497559
C -0.2671351496 -6.1232058620 0.3739757887
C -0.4603822547 -6.9760101049 1.6399181757
C 0.9745997857 -6.5300833062 -0.4539113788
O 1.6693139160 -5.7619166315 -1.0880665497
O 1.1584332948 -7.8500122895 -0.4186524600
H -1.1110942006 -6.3310018726 -0.3056511693
H -0.5337885284 -8.0310003574 1.3740920289
H 0.3797350850 -6.8647968533 2.3332138894
H -1.3839469788 -6.6924197728 2.1538898650
H 1.9274838128 -8.0721286902 -0.9812975412
N -1.9628023786 0.1706265362 -0.3662594604
C -2.3374094969 0.1449679188 -1.6244216973
C -3.7519384178 0.3544076440 -1.7962020440
C -4.2789039193 0.5255019157 -0.5487596444
C -3.1492611870 0.4275601385 0.4368409945
H -3.0643490305 1.3724527333 0.9931516828
H -3.2875534089 -0.3616376056 1.1868287924
H -4.2893909546 0.3796297882 -2.7350894645
N -0.0450346487 -0.2121589129 -2.0877946105
C -1.2547922640 -0.0672790776 -2.6092612818
N -1.5075625724 -0.0924509721 -3.9165445804
C -0.4819472711 -0.2350593606 -4.9891468048
C 0.8571009645 -0.4233330517 -4.3203406233
C 1.0249449480 -0.4089105768 -2.9932815372
H -0.4687688760 0.6973367505 -5.5672541517
H -2.4656847230 0.0416787742 -4.2198132485
H 1.9903597785 -0.5427669540 -2.5240169389
H 1.7036978968 -0.5550971145 -4.9835762534
C -0.8797286757 -1.3778625631 -5.9625027551
C -0.8236888900 -2.7850053038 -5.3455661229
C -0.0024770207 -1.2706009465 -7.2133159658
O 0.9304501489 -0.5035366842 -7.3222581645
O -0.4003610030 -2.1282163230 -8.1594393050
H -1.9102171201 -1.1878924215 -6.2977763840
H -1.1637419087 -3.5261545400 -6.0719350805
H 0.1946749376 -3.0492198793 -5.0416501935
H -1.4752482730 -2.8515264408 -4.4663350500
H 0.1844980047 -2.0241652757 -8.9370437552
C -5.7108772864 0.7807712388 -0.1716002465
C -6.6569536979 0.9240960554 -1.3782961185
C -5.8159649836 1.9679643543 0.8146010868
O -4.8786175630 2.4933732806 1.3805730033
O -7.0895964821 2.3167756571 0.9919843869
H -6.0485931966 -0.0856330147 0.4225970843
H -7.6839086640 1.0493652582 -1.0339528598
H -6.3962989056 1.7963586393 -1.9861517546
H -6.6204422007 0.0287198340 -2.0061411916
H -7.1266941599 3.0527722818 1.6357241093
