184
# extracted from Terachem optimization
Mn 0.2810731220 0.1639182731 0.2503328564
N 0.4764281576 2.1931471415 0.4555365642
C 1.7021023345 2.6019678049 0.6420918935
S 2.2315198149 4.2785718024 0.6523280368
C 0.6538535063 5.1107582306 1.2315977544
C -0.4826033034 4.4376252898 0.4967886190
C -0.5389257471 3.1281040500 0.2048029267
H 0.5925891195 4.8861688857 2.3020308228
H -1.4171040066 2.6961536113 -0.2595125823
H -1.3332334664 5.0462509175 0.2186184753
N 2.2711445678 0.3125987941 0.5452693091
C 2.7198327065 1.5278685614 0.7466209207
N 3.9952815191 1.8498796303 1.0400308582
C 5.1286281285 0.8979370214 1.0396213082
C 4.6622908156 -0.3404981315 0.2583825505
C 3.2508028054 -0.7678693761 0.6838371650
H 5.2939827805 0.5953770902 2.0815119889
H 4.6672311634 -0.1385929329 -0.8181704112
H 5.3423052461 -1.1742964999 0.4408288697
H 4.1872596090 2.8049239644 1.3098192159
H 3.2560464966 -1.1096792827 1.7296454668
H 2.9105749663 -1.6110148903 0.0759298969
C 6.4337351644 1.6448973396 0.5696844552
C 6.2603240257 2.2488331796 -0.8393506174
C 6.6697152398 2.8149498798 1.5633972485
C 7.7145268350 0.6967762179 0.6063826134
C 7.8219493287 -0.1141642596 1.9118984887
C 7.8559207389 -0.2400581102 -0.6093029725
O 8.8122938399 1.6219261255 0.5536653878
H 5.4792560800 3.0159462045 -0.8437961557
H 7.1953861965 2.7227039317 -1.1485304515
H 5.9957624649 1.5036216682 -1.5958032051
H 6.6699504689 2.4823063771 2.6072058391
H 7.6315282358 3.2849734337 1.3629646073
H 5.9107032655 3.6004419047 1.4589644749
H 7.0555387972 -0.8936011964 1.9939075983
H 8.7932491939 -0.6207340331 1.9446486591
H 7.7618412437 0.5317586789 2.7919896063
H 7.9465686697 0.3319225484 -1.5353326621
H 8.7738102652 -0.8304992899 -0.4961794183
H 7.0360654428 -0.9532796238 -0.7170369627
H 9.6300352702 1.1088872907 0.4515803246
C 0.7737894969 6.6694034237 1.0536926826
C 2.2169570192 7.1337084352 1.3704522734
C 0.4651486674 7.0745728556 -0.4038833854
C -0.2132184136 7.4054586359 2.0646728382
C -1.6871705947 6.9753026832 1.9511914392
C 0.2251967832 7.2792921361 3.5383089113
O -0.1126164268 8.7780805515 1.6686224394
H 2.9023817258 6.8755767948 0.5556460366
H 2.2256040430 8.2212076506 1.4671309179
H 2.6100606005 6.7004810647 2.2953527834
H -0.5754199504 6.8957610089 -0.6871455630
H 0.6601493509 8.1390174142 -0.5411993895
H 1.1018064597 6.5145460497 -1.0982263551
H -1.8569856795 5.9477761303 2.2925367820
H -2.2948146797 7.6245717454 2.5921872970
H -2.0703062995 7.0843144726 0.9325169944
H 1.1997751629 7.7414421554 3.7060462567
H -0.5013107940 7.7979500632 4.1753601565
H 0.2640655556 6.2418165883 3.8907255179
H -0.6072189803 9.3167185232 2.3071081523
N 0.1536919725 -1.8864470914 0.3413855664
C 0.0443309659 -2.3730092763 1.5489311389
S -0.1964752852 -4.0675307188 1.9470704740
C 0.6617681038 -4.8395455076 0.4690667274
C 0.1681315762 -4.0745765388 -0.7363163183
C 0.0056669626 -2.7417872006 -0.7623819549
H 1.7269612364 -4.6376461626 0.6294562703
H -0.2663530205 -2.2247564359 -1.6733482738
H -0.0288034061 -4.6230805693 -1.6483236651
N -0.0372993371 -0.1168619503 2.2511938206
C 0.0202522660 -1.3671857160 2.6422913321
N 0.0581228934 -1.7902131269 3.9203276852
C 0.0133173004 -0.8916654152 5.0936385200
C -0.6758190693 0.3955959338 4.6168905465
C -0.0534032041 0.8989521854 3.3078591480
H 1.0519146966 -0.6400037997 5.3463651212
H -1.7475819163 0.2220771707 4.4700089889
H -0.5702210765 1.1801730247 5.3677001026
H 0.2295522103 -2.7728608691 4.0842896605
H 0.9769260638 1.2415123470 3.4837320215
H -0.6142115680 1.7630961672 2.9400042639
C -0.5767292284 -1.6674942030 6.3275618504
C -1.9881378309 -2.2161780163 6.0315626129
C 0.3602761416 -2.8772163253 6.5911308148
C -0.6040049866 -0.7629946007 7.6393513544
C 0.7033295156 0.0255110628 7.8526121963
C -1.8155070027 0.1845302326 7.7370259801
O -0.7250761623 -1.7185693530 8.7049534096
H -1.9625242648 -2.9660562023 5.2337919728
H -2.3836421403 -2.7014308358 6.9277332157
H -2.6962191390 -1.4380788114 5.7305206031
H 1.4083200642 -2.5764757325 6.6964027069
H 0.0659153829 -3.3846322185 7.5087380940
H 0.3023167538 -3.6233155058 5.7884818035
H 0.8431931594 0.8378539721 7.1297592579
H 0.6851568841 0.4871996335 8.8463686928
H 1.5771772384 -0.6309325153 7.8166465228
H -2.7493776439 -0.3803916675 7.7786523791
H -1.7393827768 0.7663446077 8.6642199218
H -1.8807684716 0.9037868828 6.9183064320
H -0.8981372404 -1.2300175851 9.5256899570
C 0.4404475184 -6.3909970718 0.4704132230
C 0.5788832087 -6.9338705454 1.9153203213
C -0.9792333841 -6.7440543220 -0.0215553885
C 1.5420861424 -7.1085115297 -0.4323823243
C 1.5699111715 -6.6572621834 -1.9041290456
C 2.9667169594 -6.9961985377 0.1470045201
O 1.1357070400 -8.4826880755 -0.3916055608
H -0.3113414081 -6.7002160630 2.5094845538
H 0.6708080691 -8.0208285961 1.8812363263
H 1.4502109503 -6.5290457307 2.4405717982
H -1.1583347426 -6.4729510334 -1.0662543896
H -1.1397515037 -7.8192955698 0.0687554096
H -1.7335480733 -6.2313904721 0.5858792248
H 1.9536059058 -5.6382817414 -2.0248092874
H 2.2467988825 -7.3155849755 -2.4611699581
H 0.5868624876 -6.7337755796 -2.3765632563
H 3.0319915391 -7.4438617168 1.1403802894
H 3.6634488742 -7.5362403515 -0.5054419763
H 3.3282834311 -5.9626152472 0.2006507359
H 1.8021184503 -9.0109717949 -0.8597419542
N -1.7354632894 0.0520312452 -0.3406561770
C -1.9664794599 0.1973958958 -1.6185808171
S -3.5070479376 -0.0423963426 -2.4239876938
C -4.6643625369 0.3736117283 -1.0087376358
C -4.0899001975 -0.3050674550 0.2119985140
C -2.7792489990 -0.3818266247 0.4943256393
H -4.5977261051 1.4623052173 -0.9012564648
H -2.4389194063 -0.8120486151 1.4265634425
H -4.7798081517 -0.7268985673 0.9315068943
N 0.3652178854 0.4498389749 -1.7859265633
C -0.7693895623 0.5026208364 -2.4381678020
N -0.9191974055 0.8134849736 -3.7408236615
C 0.1952515980 1.0529475542 -4.6838392730
C 1.4491626537 0.4462220229 -4.0400612997
C 1.5566020178 0.8199261865 -2.5560096749
H 0.3323784358 2.1399956467 -4.7415214354
H 1.4375617392 -0.6446948837 -4.1371385787
H 2.3430629539 0.8120810584 -4.5474805069
H -1.8580633552 0.9713013327 -4.0806887054
H 1.7269690393 1.9015980162 -2.4482279856
H 2.4172463212 0.3190319752 -2.1092840830
C -0.2217152249 0.5657929017 -6.1210864329
C -0.4958822758 -0.9524435605 -6.1458432720
C -1.5469301803 1.2950205356 -6.4847494973
C 0.8676881865 0.9443265323 -7.2209102137
C 1.3256362112 2.4121514455 -7.1296752547
C 2.0976832348 0.0150456516 -7.2702145115
O 0.1664164457 0.7558097793 -8.4615566488
H -1.3226441742 -1.2140111882 -5.4767415780
H -0.7772009606 -1.2541729231 -7.1578478936
H 0.3718880654 -1.5496957908 -5.8503292400
H -1.5025763904 2.3712332258 -6.2808762748
H -1.7618914508 1.1646606719 -7.5442104902
H -2.4027422085 0.8782958516 -5.9390187789
H 1.9263510917 2.6138641905 -6.2353075731
H 1.9565537322 2.6487250545 -7.9940338605
H 0.4770721703 3.1016809839 -7.1473309594
H 1.8020335160 -1.0141400881 -7.4856563143
H 2.7513847588 0.3466043717 -8.0865086532
H 2.7059384996 0.0207971179 -6.3628601039
H 0.8024082861 0.8744849181 -9.1852249397
C -6.1346467547 -0.0017587508 -1.4042833692
C -6.3958736697 0.4001827479 -2.8783083835
C -6.3565002120 -1.5258630076 -1.2950498041
C -7.1772781736 0.7862913890 -0.4899447116
C -7.0606787893 0.5060872391 1.0196301175
C -7.1481973246 2.3109393579 -0.7152430079
O -8.4388635684 0.2787643471 -0.9446803744
H -5.9216656135 -0.3059814060 -3.5687737317
H -7.4695657682 0.3690605340 -3.0703429703
H -6.0302873468 1.4038882233 -3.1193845177
H -6.2691043766 -1.9061612071 -0.2732748257
H -7.3552284075 -1.7793929323 -1.6534838848
H -5.6251138764 -2.0642046822 -1.9082871692
H -6.1562311743 0.9397389016 1.4595366351
H -7.9119758522 0.9713402057 1.5301831390
H -7.0973004640 -0.5637921486 1.2410462595
H -7.3603130303 2.5689556346 -1.7546932323
H -7.9214005987 2.7807284066 -0.0953614338
H -6.1957373482 2.7694675754 -0.4248803783
H -9.1444309266 0.7535712092 -0.4765154232
