109
# extracted from Terachem optimization
Mn 0.0334928530 0.2675193102 -0.1060823459
O 0.0417899128 2.4309023757 -0.2053945952
C 1.2997039856 3.1949113104 -0.1752790145
N 0.9689335639 4.4212602345 -0.8636164103
C -0.4325425484 4.4918219380 -0.9711781494
C -0.9810626993 3.3203401966 -0.6289002406
H -1.9808048130 2.9272946545 -0.6523112647
H 1.4385109875 5.2755593038 -0.5799439510
H 1.5731937827 3.3285699074 0.8841634414
O 2.1299800797 0.9595120598 -0.5886465093
C 2.3746762502 2.3740522209 -0.8984031535
S 3.9976176926 2.9452131422 -0.3346544364
C 4.9689574783 1.7986037061 -1.3825788690
C 4.4120205543 0.4059854700 -1.2808907177
C 3.1722498381 0.0781402068 -0.9145090858
H 5.9812330166 1.7920267916 -0.9672288502
H 2.8356601761 -0.9429938962 -0.8002682095
H 5.0937087354 -0.4074663470 -1.5122330611
H 2.2879894466 2.4921426672 -1.9809281168
C 5.0672646040 2.2415112608 -2.8647403426
O 4.2892682306 3.0238540753 -3.3627570822
C 6.1706217818 1.5554021272 -3.7040165497
N 6.8747574100 2.5592083206 -4.4575405967
O 7.0606023478 0.8114570819 -2.8927258511
H 5.6410243213 0.8018066198 -4.3153493226
H 7.2985486294 2.1674295568 -5.2949581900
H 6.2559664993 3.3186323700 -4.7326020471
H 7.8411381626 1.3838313780 -2.7734320330
C -1.0512781388 5.7740113488 -1.3874363409
O -0.3298163339 6.7400117150 -1.5631092449
C -2.5880502425 5.8606192826 -1.5040618694
N -2.9239844575 6.8849145420 -2.4456496313
O -3.1422244255 4.6055784438 -1.8987954961
H -2.9691010174 6.0280338547 -0.4820808970
H -3.7881805616 7.3635479903 -2.2116701941
H -2.1734699142 7.5660650450 -2.5356765602
H -3.2417527474 4.6882069230 -2.8653853946
O 0.6980300901 -1.8169735381 0.1426611785
C 1.0791558187 -2.1965280572 1.5134886744
N 0.7177298304 -3.5932509895 1.5669564755
C 0.6802257802 -4.0629611208 0.2404403241
C 0.6297128181 -3.0255242504 -0.6059625307
H 0.5324783099 -2.9416675690 -1.6730610564
H 1.1881513703 -4.1921653047 2.2384732671
H 2.1599212774 -1.9937561694 1.6076431937
O 0.3255678476 0.0361687522 2.0394144304
C 0.2880005818 -1.3518755740 2.5137716580
S 1.0317627318 -1.5387387346 4.1577217844
C -0.1430918014 -0.4210597354 5.0133950459
C -0.2990544516 0.8660114230 4.2479571033
C -0.0703064071 1.0328387291 2.9450692740
H 0.3099494391 -0.1864194680 5.9811769734
H -0.1390753726 1.9900500230 2.4412251611
H -0.6098614409 1.7371764494 4.8171675924
H -0.7572174816 -1.6670542115 2.5397523953
C -1.5303907841 -1.0525656379 5.2778637517
O -1.9463094030 -1.9946747268 4.6342313252
C -2.4111942633 -0.3503476590 6.3330806794
N -2.9035937635 -1.3312833446 7.2695409215
O -1.7074617604 0.6753212967 7.0070786354
H -3.1938656817 0.1583932612 5.7446228557
H -3.7853380965 -1.0369877977 7.6820695440
H -3.0411072947 -2.2402665204 6.8341197528
H -1.4475827632 0.2918281643 7.8652604137
C 0.6812252243 -5.5313574079 0.0222039736
O 0.7438987250 -6.2580895401 0.9985341089
C 0.6870311433 -6.1030629859 -1.4103877726
N -0.1172571570 -7.2927273988 -1.4322606327
O 0.2290116465 -5.1596331639 -2.3692561659
H 1.7506189265 -6.2567663490 -1.6625498746
H 0.2114146026 -7.9579567941 -2.1265796543
H -0.1164684039 -7.7477067565 -0.5216116338
H -0.7389080716 -5.2739410384 -2.4338698995
O -2.1506123669 0.1526986384 -0.0352439584
C -2.9230775610 -0.1991725263 -1.2345494975
N -3.9574743012 -1.0605692663 -0.7083078734
C -4.0862703945 -0.7560457384 0.6610091000
C -3.0111448469 -0.0718913752 1.0749777763
H -2.6811632011 0.2867090434 2.0334137538
H -4.8272005470 -1.1377622370 -1.2270023185
H -3.2933653560 0.7480651395 -1.6628389416
O -0.7036549285 -0.2341628310 -2.1759495847
C -2.0039870829 -0.9147267687 -2.2252174246
S -2.7744630509 -0.8625000416 -3.8663472597
C -1.4309776310 -1.7645896667 -4.7286508208
C -0.0942334263 -1.1891474125 -4.3439671434
C 0.1768590017 -0.5030716390 -3.2323644420
H -1.5857185068 -1.5811774481 -5.7963306749
H 1.1402659220 -0.0465280050 -3.0425606507
H 0.7141444573 -1.3239019457 -5.0556549705
H -1.8427130588 -1.9503732410 -1.9202520069
C -1.4632394776 -3.2930315657 -4.4924559789
O -1.9985660225 -3.7833818782 -3.5183419639
C -0.7158480401 -4.1737953878 -5.5181816541
N -1.6873896585 -5.0113650984 -6.1878808173
O -0.0113997370 -3.3953754644 -6.4652730270
H 0.0472842028 -4.7129730654 -4.9343506098
H -1.2366889981 -5.8291361453 -6.5944269820
H -2.4078679181 -5.3398983173 -5.5483754143
H -0.5659003605 -3.3910619443 -7.2673990994
C -5.2987480909 -1.2318439064 1.3720430024
O -6.1465234839 -1.8280510102 0.7309090786
C -5.4903138204 -0.9047396762 2.8668884861
N -6.2086351374 -1.9816558065 3.4853565795
O -4.2477504362 -0.6753704431 3.5210578065
H -6.0021963106 0.0723309994 2.8992552595
H -6.8015959230 -1.6594634767 4.2445511477
H -6.7847111725 -2.4737551515 2.8055168341
H -3.9349920269 -1.5488614686 3.8272542804
