118
# extracted from Terachem optimization
Mn 0.1967043613 0.0139024551 -0.1075804916
O 0.9297542757 2.0222807755 0.1413022652
C 2.1846656503 2.0424340784 0.9030169331
S 2.8179619784 3.7826257905 0.8745423612
C 1.7182507623 4.1196888402 -0.4849742971
C 0.8532574425 3.1290518891 -0.7133133699
H 0.0745004642 3.0883806199 -1.4583406448
H 1.9425501965 1.7374031915 1.9222493467
O 2.3659119605 -0.1512352442 -0.0663107690
C 3.1477950406 1.0454396350 0.2598292896
S 4.4874523777 0.6845149290 1.4367163149
C 5.3693813870 -0.5138454150 0.3509942020
C 4.4044723963 -1.4712683285 -0.2770847050
C 3.0945034001 -1.2894887486 -0.4407730086
H 6.0429692083 -1.0561680878 1.0170711956
H 2.4421783483 -2.0237560055 -0.8940499515
H 4.8204499089 -2.4024045400 -0.6525295498
H 3.5745933725 1.4130498882 -0.6770134929
C 6.2153837396 0.2026221206 -0.7366554195
O 5.7230982807 0.9847437835 -1.5193541679
C 7.7193174732 -0.1464601292 -0.6952158058
O 7.7346030425 -1.5488470273 -0.7166023165
C 8.5186935608 0.4863018745 -1.8233023891
O 8.1616150087 0.2701233285 0.5931847116
H 8.6379445142 -1.8423706676 -0.5023931326
H 8.4085405764 1.5751942393 -1.8264133193
H 9.5779464217 0.2332101597 -1.7056797070
H 8.1719913474 0.1090755188 -2.7878914366
H 8.6148662737 1.1259814785 0.5183253742
C 1.6548338357 5.3729762124 -1.3112841522
O 1.0266803226 5.3715966206 -2.3511479939
C 2.2586946437 6.6668998661 -0.7217959329
O 3.4044648247 6.2771006653 -0.0107073530
C 2.5551350554 7.7150524426 -1.7837509676
O 1.3060899752 7.1098016252 0.2384405896
H 3.6137328402 6.9855023764 0.6239208110
H 1.6656790422 7.9349386289 -2.3809224920
H 2.9045539202 8.6322696450 -1.2981632462
H 3.3374782534 7.3557398341 -2.4568739611
H 0.7139201898 7.7561847600 -0.1807712614
O 0.0792633351 -2.0587396461 0.0137326944
C 0.4437901093 -2.5495822826 1.3602459394
S -0.1108991863 -4.3184045494 1.4808512940
C -0.8349296938 -4.1923143579 -0.1404428241
C -0.6539674277 -3.0032765145 -0.7170244749
H -0.9452390190 -2.6886385331 -1.7094470925
H 1.5303315978 -2.4599372247 1.4347753341
O 0.0602465006 -0.2670697616 1.9861246659
C -0.2459091051 -1.6509000402 2.3734386452
S 0.3344472889 -2.0029098004 4.0577464769
C -0.7769815281 -0.7747083299 4.8665095557
C -0.7591539529 0.5334887415 4.1323247275
C -0.3944154842 0.7290663378 2.8649396559
H -0.3716054276 -0.6391002350 5.8712958708
H -0.3914803904 1.7004473321 2.3847499753
H -1.1048338619 1.4014612645 4.6868960633
H -1.3315516626 -1.7709372292 2.3443634122
C -2.2415004491 -1.2798445849 4.9881293592
O -2.8336727060 -1.7745695415 4.0545316541
C -2.8535068034 -1.1140712117 6.3974541491
O -2.5678245233 0.2185368415 6.7345631004
C -4.3366158762 -1.4446277082 6.4493038216
O -2.0701174113 -1.9461820356 7.2449700838
H -2.7274235817 0.3257068366 7.6890687393
H -4.5280169434 -2.4714883099 6.1222146981
H -4.7023484065 -1.3209303081 7.4744339049
H -4.8938386015 -0.7730938220 5.7921017423
H -2.5404131924 -2.7814708512 7.4017241108
C -1.5565781753 -5.2850455998 -0.8785581469
O -2.1678540295 -5.0232212504 -1.8946655121
C -1.3736525415 -6.7356289566 -0.3815419559
O -1.3668636441 -6.6629927196 1.0215977578
C -2.4409742362 -7.6782726313 -0.9165122087
O -0.0603832080 -7.1084475849 -0.7819700927
H -0.9176969416 -7.4610510956 1.3529982891
H -2.4811273812 -7.6489993184 -2.0091433224
H -2.2194919859 -8.6986291722 -0.5864241445
H -3.4228638851 -7.3911399657 -0.5327294933
H -0.1132264580 -7.6072757171 -1.6139776616
O -1.8214704068 0.4051727613 -0.2706296165
C -2.2371098459 0.9346299286 -1.5798147048
S -4.0115113078 0.4657773115 -1.8100094581
C -4.1281607776 0.2485272492 -0.0442374232
C -2.9381364415 0.2210325600 0.5594834738
H -2.7199020760 0.0848440372 1.6084846589
H -2.1183478037 2.0226071980 -1.5215125016
O 0.0418275932 0.4158620134 -2.1350177187
C -1.3396894977 0.3274096848 -2.6404938226
S -1.5520090343 1.2001669092 -4.2148678533
C -0.3576275242 0.1300558315 -5.1376923722
C 0.9237450299 0.0127964983 -4.3717601732
C 1.0715906519 0.1443822606 -3.0556642347
H -0.1859379854 0.6480255325 -6.0824768304
H 2.0198787243 0.0999402160 -2.5385524044
H 1.8229094492 -0.1971622555 -4.9447408636
H -1.5541257127 -0.7319306006 -2.7929511232
C -0.9805947963 -1.2574388775 -5.4286738342
O -1.2387796231 -2.0396561454 -4.5370795925
C -1.2751151888 -1.5328605344 -6.9186214530
O -0.0406767971 -1.3155993173 -7.5460867794
C -1.8461532950 -2.9204100418 -7.1707008558
O -2.1582872996 -0.4949993142 -7.3321670041
H -0.1972028065 -1.2682355006 -8.5059873232
H -2.7675386350 -3.0806409668 -6.6021202776
H -2.0579518831 -3.0365860150 -8.2390325949
H -1.1264948817 -3.6846845608 -6.8695275019
H -3.0680670906 -0.8339299791 -7.3576160455
C -5.3947994262 0.1005408071 0.7475980991
O -5.3447844293 -0.0319998120 1.9537723806
C -6.7282394046 0.2412199392 -0.0192483388
O -6.5237014468 -0.4204155368 -1.2432838642
C -7.9148247698 -0.3066237859 0.7587135289
O -6.8543259296 1.6264131110 -0.3130542301
H -7.2020513314 -0.1001444872 -1.8646136836
H -7.9828628775 0.1564940727 1.7471831089
H -8.8362548647 -0.1110436199 0.2003343482
H -7.8092945582 -1.3854838737 0.8957308889
H -7.4148783589 2.0449874067 0.3612016576
