94
# extracted from Terachem optimization
Mn -0.1137990162 0.1602404875 0.0351823726
O 0.0272678803 2.1878298458 -0.0044705819
C 1.3272829233 2.7217062747 0.4104801126
C 1.2685013685 4.1540748020 -0.0346830216
C 0.1702944597 4.3975145074 -0.7544205442
C -0.6635018664 3.1496201409 -0.8695441940
H -1.6730747515 3.2851572591 -0.4796684953
H -0.7015819624 2.7356798438 -1.8840139683
H 2.0465772493 4.8645500064 0.2184529162
H 1.3901947298 2.5916388619 1.4964700815
O 2.0955700236 0.4936449326 -0.0622944258
C 2.4309266903 1.8953943210 -0.2558864247
S 4.0386727456 2.3176354814 0.4799189676
C 5.0587201799 1.1778494829 -0.5619033473
C 4.3406729295 -0.1262507566 -0.7759050862
C 3.0631004047 -0.4083974174 -0.5207496628
H 5.9292176825 0.9642625960 0.0696221531
H 2.6401814828 -1.3966006433 -0.6545967070
H 4.9586966395 -0.9367465552 -1.1500925892
H 2.4440094126 2.0683723479 -1.3379636739
C 5.5672784207 1.8467376402 -1.8526592382
C 6.6009153531 1.0131321181 -2.5938906104
O 6.9545785022 -0.0921154947 -2.2468006149
H 4.7445862681 2.0723784135 -2.5465528452
H 6.0301914990 2.8146752867 -1.6159823739
H 7.0316577571 1.4981663687 -3.4933466894
C -0.2415588373 5.6960501252 -1.3827838038
C -1.6488207073 6.1615579366 -1.0160248622
O -2.4680423297 5.4793783313 -0.4419384987
H 0.4687256987 6.4929085310 -1.1307801181
H -0.2204057580 5.6247871280 -2.4835949263
H -1.8871281522 7.1944265094 -1.3378277746
O 0.0507883559 -1.8386302873 0.2175714784
C 0.7149422424 -2.2522362886 1.4562594020
C 0.3530463158 -3.7031840874 1.5789097366
C -0.4024545327 -4.1105594318 0.5555789224
C -0.6416682822 -2.9807267266 -0.4070990282
H -0.2015188214 -3.1454274470 -1.3902873217
H -1.7047701119 -2.7431177661 -0.5063824130
H 0.6855921901 -4.3062952550 2.4157545681
H 1.7906857861 -2.0829232790 1.3249743530
O 0.1521899843 0.0079117771 2.0741161297
C 0.2087662185 -1.3583037482 2.5921746122
S 1.3176514130 -1.4725286560 4.0215904993
C 0.3761610802 -0.3168942131 5.1220499769
C -0.2207987000 0.8182588465 4.3351919902
C -0.2858246972 0.9600764943 3.0128345500
H 1.1553326155 0.1159767698 5.7612443109
H -0.6750084632 1.8363530695 2.5098348191
H -0.6126484944 1.6333932453 4.9363352797
H -0.8170647458 -1.6205055930 2.8721993231
C -0.6232706564 -1.0485043789 6.0377552578
C -1.1908566461 -0.1594345946 7.1351980771
O -0.9481083293 1.0223277928 7.2378755465
H -1.4628361687 -1.4741776140 5.4690023582
H -0.1301840022 -1.9018149943 6.5229451742
H -1.8510031016 -0.6765657379 7.8606882726
C -1.0281565315 -5.4631459913 0.3657128451
C -1.1131700309 -5.9563034742 -1.0700316579
O -0.9822928150 -5.2494129153 -2.0473467983
H -0.5330965312 -6.2194223370 0.9857966404
H -2.0743695542 -5.4228455870 0.7165759516
H -1.3524378144 -7.0324805948 -1.1742640941
O -2.2018903489 0.1431660614 -0.0995101351
C -2.7680626904 0.2922923162 -1.4396624780
C -4.0758817191 -0.4416188363 -1.3541345586
C -4.2883202675 -0.9121624411 -0.1242115525
C -3.1646058864 -0.5006083653 0.7885810929
H -3.4766357876 0.2272490899 1.5480680729
H -2.6763947659 -1.3482691295 1.2752004172
H -4.7244668456 -0.5586171176 -2.2147721611
H -2.8811084688 1.3661475151 -1.6319041289
O -0.4421099261 0.0751360640 -2.0767145117
C -1.7945419579 -0.3169359334 -2.4536833502
S -2.2097748057 0.2371428136 -4.1305449241
C -0.9327626097 -0.7922895666 -4.9927595507
C 0.3558227724 -0.7740892062 -4.2161637290
C 0.5545020372 -0.3663439911 -2.9635386259
H -0.7536997356 -0.2496703586 -5.9284463005
H 1.5316047778 -0.3224376890 -2.5012854582
H 1.2310199247 -1.1092816073 -4.7651529802
H -1.8178542391 -1.4087385913 -2.4053804342
C -1.4378748993 -2.2015945817 -5.3543256009
C -0.4929514353 -2.9430675419 -6.2878801060
O 0.5752129855 -2.5048553232 -6.6533955235
H -1.5913265108 -2.8259860793 -4.4622671566
H -2.4159138701 -2.1358713216 -5.8502254255
H -0.8555667378 -3.9339043552 -6.6276676534
C -5.4206141103 -1.7676629959 0.3580709079
C -4.9760657433 -3.1754978328 0.7311416701
O -3.8217780352 -3.5532125719 0.6925067560
H -5.9158064349 -1.3365414705 1.2428876212
H -6.2095492302 -1.8505691869 -0.4011683706
H -5.7879010538 -3.8554353124 1.0523306279
