106
# extracted from Terachem optimization
Mn -0.1444392169 0.1648152153 -0.1236200465
O -0.0295935127 2.2293533672 -0.1935930775
C 1.1220964511 2.7039168280 0.5700386931
S 1.1928515662 4.5204530315 0.3129308219
C 0.2940755112 4.2974112311 -1.2183041557
C -0.2378108129 3.0833304202 -1.3155548278
H -0.8200798654 2.6415188004 -2.1083095127
H 0.9187003222 2.4706818227 1.6153985466
O 2.0156086869 0.5658177415 -0.0810232623
C 2.3734575171 1.9707739780 0.0739061882
S 3.7263581176 2.1804402733 1.2661608404
C 4.9949281681 1.2494358851 0.2832118387
C 4.3766746882 0.0170711252 -0.3168513810
C 3.0816131876 -0.2741127715 -0.4379809401
H 5.7136541797 0.9271461820 1.0457707046
H 2.7132428944 -1.2075885793 -0.8444418918
H 5.0677185970 -0.7270355735 -0.6998498806
H 2.6689496209 2.3253594118 -0.9180347728
C 5.7429633621 2.1703175962 -0.7189675038
C 6.9278213055 1.5123431833 -1.3774490474
C 8.2003062137 1.8147116247 -1.1062269418
O 6.5271248012 0.5596607475 -2.2873120843
H 5.0420486246 2.5104488308 -1.4916800553
H 6.0870299326 3.0507860180 -0.1712089171
H 9.0305693444 1.3205281080 -1.6039939868
H 8.4485172415 2.5839417688 -0.3850691781
H 7.3141203431 0.1883659899 -2.7208179806
C 0.1735357674 5.4321967139 -2.1975395800
C -0.5145552474 6.6339162931 -1.5911598408
C 0.0690371584 7.8245997388 -1.4270309338
O -1.7972545423 6.3142898438 -1.2377869966
H 1.1673954244 5.7254850516 -2.5496887023
H -0.4015832378 5.0814290155 -3.0635124838
H -0.4588233878 8.6705707263 -0.9953751014
H 1.0905638770 7.9931525937 -1.7456531634
H -2.2355329255 7.1027029955 -0.8759912641
O 0.3384037206 -1.8421597472 0.0876141996
C 0.8633408477 -2.1057118449 1.4342683901
S 0.7588809576 -3.9236430099 1.6929230091
C -0.4252549083 -4.0360903647 0.3579689269
C -0.4989366616 -2.9109545999 -0.3421122594
H -1.0852326802 -2.6982330618 -1.2183628935
H 1.9005972099 -1.7691074974 1.4333426912
O -0.2001969378 0.0060865529 1.9577233457
C 0.0377555563 -1.3412665296 2.4715549718
S 0.9174024995 -1.2784172907 4.0537165758
C -0.4412849043 -0.4278104644 4.9894656424
C -1.0892224738 0.6283299706 4.1356450411
C -0.9633471571 0.8186700883 2.8232568740
H 0.0987764802 0.0742281948 5.8009152616
H -1.4384662183 1.6214490364 2.2731597766
H -1.7538959516 1.3106948549 4.6567905875
H -0.9442007897 -1.8062169986 2.5969780968
C -1.4347187392 -1.4383996781 5.6291794281
C -2.2651823367 -0.8471292582 6.7388115899
C -2.1487440263 -1.1949994635 8.0233100050
O -3.1475324846 0.0947497049 6.2608468876
H -2.0962900978 -1.8348441564 4.8473527260
H -0.8578224607 -2.2723068603 6.0355179419
H -2.7649587764 -0.7503083433 8.8003096856
H -1.4356040975 -1.9487208658 8.3343716183
H -3.6682639018 0.4478707474 7.0020620202
C -1.2241632784 -5.3053235229 0.1788992277
C -1.7217630755 -5.5569080451 -1.2215598371
C -1.4127381873 -6.6334418693 -1.9451656709
O -2.5700894125 -4.5512456280 -1.6500412996
H -0.6220528008 -6.1627399344 0.4926495289
H -2.0829828307 -5.2475712332 0.8639308938
H -1.8239123020 -6.8003198312 -2.9374518589
H -0.7479541678 -7.3946120396 -1.5558505895
H -2.9377460010 -4.8098838766 -2.5121462521
O -2.2276616673 0.0167143431 -0.2811910392
C -2.7365264576 0.3176247578 -1.6157198540
S -4.3867291600 -0.4916463290 -1.7781421799
C -4.1046097050 -1.3795770108 -0.2536919167
C -2.9939621192 -0.9921366670 0.3598488751
H -2.6085132538 -1.3085666208 1.3126277809
H -2.8369987914 1.4033717355 -1.6717757559
O -0.4016923230 0.0838129811 -2.2332417904
C -1.7606149453 -0.2032162757 -2.6743476374
S -2.1184417039 0.6122688026 -4.2566889589
C -0.8681922807 -0.3346742337 -5.2478178192
C 0.4029396678 -0.4905908269 -4.4588801598
C 0.5970531681 -0.2749319674 -3.1589893871
H -0.6596108366 0.3350850548 -6.0905399940
H 1.5627166291 -0.3389746553 -2.6755467672
H 1.2759989810 -0.8069159264 -5.0207551789
H -1.8363314209 -1.2899136575 -2.7774640523
C -1.4666455222 -1.6465367079 -5.8210968126
C -0.5757889711 -2.3286019223 -6.8270533073
C -0.8215882829 -2.3654673589 -8.1395962510
O 0.5189419265 -2.8995606573 -6.2190591092
H -1.6811338456 -2.3388072891 -4.9966722832
H -2.4157424674 -1.3998127364 -6.3030787231
H -0.1575780520 -2.8678671357 -8.8381321334
H -1.7096302546 -1.9035325726 -8.5537818139
H 1.0554060962 -3.3507620008 -6.8927642057
C -5.0713523939 -2.4656974420 0.1555505814
C -5.1040074307 -2.7685803168 1.6321786572
C -6.1951701643 -2.6745283795 2.3925947663
O -3.8703779380 -3.1938836085 2.0957252682
H -6.0814821046 -2.1957407173 -0.1653623428
H -4.7883283261 -3.3753594998 -0.3948117110
H -6.1890062453 -2.9395323616 3.4467918955
H -7.1382024960 -2.3428979661 1.9759804604
H -3.9804588360 -3.4887892099 3.0155967166
