124
# extracted from Terachem optimization
Mn 0.1701339068 0.3041124784 0.0184011299
O 0.2959556845 2.4335224928 0.0913714246
C 1.5086697020 2.9424485614 0.7309555821
C 1.4152115019 4.4246857551 0.5352776806
C 0.3463117784 4.7521127738 -0.1922367951
C -0.4272634476 3.5221166416 -0.5806066982
H -1.4550774467 3.5267298321 -0.2153615794
H -0.4290166456 3.3205699198 -1.6588208192
H 2.1151924674 5.1225091645 0.9753322459
H 1.4614999005 2.6431412894 1.7861776299
O 2.4360467165 0.8418668158 0.0131171991
C 2.7198213195 2.2742703409 0.0763300803
S 4.2081772569 2.6201320147 1.0618332307
C 5.3869524699 1.6930588532 -0.0231989973
C 4.7946207123 0.3568227452 -0.3786259957
C 3.5053891932 0.0155045154 -0.3272168777
H 6.2409754015 1.5145178030 0.6405623185
H 3.1448696638 -0.9859596065 -0.5255779280
H 5.4928951480 -0.4164977587 -0.6837852800
H 2.8893031394 2.6087657121 -0.9513472854
C 5.8860060307 2.5528203275 -1.2262090944
N 4.8675373668 2.6002472414 -2.2732830860
C 7.2962821968 2.0921759311 -1.6703564779
N 7.3374646344 0.7801717874 -2.2019562433
Cl 7.9313285833 3.4053019551 -2.8724264392
H 6.0084283652 3.5731001405 -0.8538353705
H 4.7858277816 1.6935114188 -2.7318560536
H 5.1509771141 3.2735674150 -2.9843432854
H 7.9948453535 2.1689964080 -0.8360820068
H 6.8572083226 0.7147904635 -3.0968255964
H 8.2920378341 0.4588029016 -2.3432037938
C -0.0725249528 6.1485017724 -0.5875888816
N 0.9008519767 7.1143003972 -0.0988423904
C -1.4916731917 6.5051474345 -0.0773390919
N -2.4887479556 5.7465424265 -0.8164105939
Cl -1.7001852903 6.1342740904 1.6878280887
H -0.1829506669 6.1563076123 -1.6924139833
H 0.5636944008 8.0659855274 -0.2270053299
H 1.7699221188 7.0384691212 -0.6229219029
H -1.6196540158 7.5940463723 -0.1345369395
H -3.4082591635 5.9008646922 -0.4053421046
H -2.5343233060 6.1006877754 -1.7730673919
O 0.7925600055 -1.7468070546 0.2310328869
C 1.2345374849 -2.0597705473 1.5963949826
C 1.3521326786 -3.5529731923 1.5880965726
C 0.9990036010 -4.0653628131 0.4074871626
C 0.5934393436 -2.9744368341 -0.5432005639
H 1.2299095984 -2.9163100347 -1.4287579513
H -0.4520250292 -3.0261041387 -0.8682916322
H 1.7336294972 -4.1137637791 2.4311334068
H 2.1950967151 -1.5511606021 1.7476511305
O 0.0991513576 -0.0500336869 2.2228387378
C 0.2052276898 -1.4711979364 2.5627452001
S 0.6984007877 -1.7081178783 4.2940383811
C -0.7924544465 -0.8826122996 5.0259368387
C -1.0610725673 0.4131560032 4.3100898721
C -0.6465694918 0.7513492945 3.0894043717
H -0.4610241395 -0.6423839808 6.0428710602
H -0.8217627642 1.7252161486 2.6459660378
H -1.6367716947 1.1543168082 4.8550119566
H -0.7881713118 -1.9082807624 2.4281524193
C -2.0158221500 -1.8476689997 5.1329948015
N -2.6495745496 -2.0281824848 3.8264161600
C -2.9551988920 -1.3957754010 6.2795690631
N -3.5142613051 -0.1122699209 6.1046348876
Cl -4.2633709416 -2.7651338977 6.4661391146
H -1.6242039762 -2.8225028917 5.4353392687
H -3.1846400318 -1.2020175686 3.5578158909
H -3.3179148636 -2.7944591141 3.8977406201
H -2.4334617928 -1.4412169388 7.2359924286
H -4.1261213929 -0.0553668414 5.2941027755
H -4.0324340030 0.2006243430 6.9213872664
C 1.0062069248 -5.5267404970 0.0274265237
N 1.4362085527 -6.3269537933 1.1646968163
C 1.9110426977 -5.8320863270 -1.1952200747
N 1.2646875753 -5.4170376216 -2.4381774073
Cl 3.5209663591 -4.9982535287 -1.0970236942
H -0.0160147588 -5.7798088701 -0.3263658068
H 1.5262258698 -7.3076421090 0.9079821850
H 0.7464090012 -6.2829756924 1.9115951266
H 2.1687172571 -6.8978429728 -1.1749959014
H 1.8946394388 -5.6345576613 -3.2104662445
H 0.4388790245 -6.0023468805 -2.5806632586
O -1.9921303034 0.2159164028 -0.1852685974
C -2.4694268430 0.5050421333 -1.5385493072
C -3.8989064246 0.0570261967 -1.5155349253
C -4.2311393384 -0.4430496778 -0.3246945792
C -3.0607333719 -0.3882771846 0.6157145172
H -3.2400955305 0.2514262727 1.4823976406
H -2.7254739266 -1.3702926498 0.9682999240
H -4.5680095550 0.1885700276 -2.3554862763
H -2.3680450741 1.5861468712 -1.7005456243
O -0.1916438295 0.1572410899 -2.1888425360
C -1.5631653246 -0.2441794549 -2.5148339286
S -1.9715781237 0.1325902347 -4.2425189904
C -0.6857708919 -0.9841920808 -4.9810427381
C 0.6286383321 -0.7746418637 -4.2800615905
C 0.8100345557 -0.2524028498 -3.0668476504
H -0.5870844170 -0.5962548610 -6.0016242206
H 1.7884805072 -0.0517045537 -2.6449689575
H 1.5197993516 -1.0526018914 -4.8335000077
H -1.6172637566 -1.3276104795 -2.3782707666
C -1.1655783507 -2.4659344776 -5.0764773689
N -1.1017920815 -3.1220368622 -3.7692113408
C -0.4331000273 -3.1949482958 -6.2308351110
N 0.9665898555 -3.2857178753 -6.0661351916
Cl -1.2777970678 -4.8875297068 -6.4089309266
H -2.2194303492 -2.4370707901 -5.3652777367
H -0.1417078099 -3.3491504725 -3.5081026456
H -1.6000310344 -4.0089123537 -3.8325142573
H -0.6593411738 -2.7178421526 -7.1848996004
H 1.2282251128 -3.8394069094 -5.2539154644
H 1.4270675774 -3.6784031534 -6.8831755930
C -5.5863895763 -0.9786278421 0.0726053055
N -6.4838786077 -0.9369981309 -1.0731586181
C -6.2198623010 -0.2058389846 1.2594835244
N -5.5855089953 -0.5864313178 2.5203437767
Cl -6.0717716027 1.5912388230 1.0781048390
H -5.4314296003 -2.0026885245 0.4736075356
H -7.4269310013 -1.2132310383 -0.8083758591
H -6.1770206906 -1.5920783826 -1.7889191968
H -7.3018798776 -0.3851521409 1.2487499956
H -6.0014831588 -0.0264052515 3.2646423459
H -5.8400836071 -1.5545916304 2.7273440453
