124
# extracted from Terachem optimization
Mn -0.2062050991 0.0373126567 -0.1761556579
O -0.0362347901 2.1136384299 -0.2558980791
C 1.2831107517 2.5186207705 0.2255648997
S 1.4356578533 4.3129769798 -0.1263986824
C 0.1564858442 4.1603352640 -1.3692669267
C -0.4617373592 2.9830145612 -1.3049656350
H -1.2631582924 2.6154780089 -1.9227824147
H 1.2946364945 2.3356543328 1.3005080370
O 1.8873903439 0.2955860156 -0.4765721468
C 2.3553250076 1.6824567329 -0.4758566649
S 3.9257651211 1.8381448993 0.4168386087
C 4.9256835220 0.7827375025 -0.7340659278
C 4.1174523680 -0.4103362459 -1.1615334258
C 2.8094465892 -0.6209667932 -1.0168107411
H 5.7444369947 0.4343876595 -0.0913208694
H 2.3121020648 -1.5349600734 -1.3141820630
H 4.6741635898 -1.1913127818 -1.6707138799
H 2.4636607224 1.9758519826 -1.5243639749
C 5.5595398972 1.5693996788 -1.9037638689
C 6.8947620206 0.9615526239 -2.4088402613
N 7.2744785469 1.6990996771 -3.5900250772
N 7.8846622861 1.0452318215 -1.3456712483
O 6.7350865045 -0.4376094397 -2.7105830758
H 5.7628218196 2.5951950666 -1.5827298947
H 4.8609366918 1.6307365582 -2.7459094310
H 8.1686691100 1.3501776746 -3.9350269665
H 6.5995825901 1.5419754339 -4.3380605910
H 8.7749750632 0.6737085191 -1.6807655026
H 8.0560928703 2.0209565452 -1.1060839402
H 7.1146218309 -0.9294817177 -1.9623631590
C -0.0776800644 5.2960278583 -2.3322783463
C -1.5583542354 5.6108870903 -2.6793792620
N -2.1775482751 4.4275296854 -3.2769677462
N -2.2418344890 6.0860272494 -1.4958181029
O -1.5776106968 6.6460359747 -3.6440879952
H 0.3566325470 6.2127754301 -1.9226212790
H 0.4532139562 5.0924717812 -3.2704595136
H -3.1454634274 4.6676323273 -3.4984035424
H -1.7359760378 4.2568224289 -4.1831946383
H -3.1964328663 6.3545611141 -1.7315021536
H -2.2825196152 5.3661336227 -0.7780042966
H -1.3913550525 7.4830949535 -3.1831367129
O 0.2128093984 -1.9643579670 0.0083985680
C 0.8647596135 -2.3007280859 1.2778329931
S 0.6856629517 -4.1235943519 1.5088660026
C -0.4188626227 -4.2135052838 0.1042969113
C -0.5513822162 -3.0432489723 -0.5109066575
H -1.1373342735 -2.8248785060 -1.3879440916
H 1.9173917621 -2.0327483606 1.1683288208
O 0.0489933462 -0.1213116558 1.9001416696
C 0.2208903206 -1.4926525510 2.4022164869
S 1.2699839751 -1.5227289642 3.8786985015
C 0.0835624107 -0.5749043525 4.9497025402
C -0.4751157079 0.5870716963 4.1698859728
C -0.4477241701 0.7856035655 2.8510221813
H 0.7286324829 -0.1404984761 5.7205634735
H -0.7956450917 1.6892905281 2.3647012114
H -0.8717533917 1.3986934424 4.7755348809
H -0.7817225364 -1.8656476219 2.6356142941
C -0.9185373257 -1.5311059637 5.6388646873
C -2.0684823798 -0.8598132038 6.4373228184
N -2.6000679609 -1.8288738341 7.3565264777
N -1.5908022654 0.3446647771 7.1025433310
O -3.1174300569 -0.4451678176 5.5320673915
H -0.3456186193 -2.1669489135 6.3203756452
H -1.3826960511 -2.1895324601 4.8964700805
H -3.4104923695 -1.4441435769 7.8406800898
H -2.9086573180 -2.6727846517 6.8754860052
H -2.3873860270 0.8204358003 7.5275860105
H -0.9702881638 0.0809365782 7.8686248025
H -2.7521454445 0.2519454418 4.9605899109
C -1.0655848774 -5.5241365399 -0.2659574131
C -1.3386281924 -5.7222091385 -1.7845712798
N -2.2355846219 -4.6681216169 -2.2653704122
N -0.0803410818 -5.7727796294 -2.4998895867
O -2.0004022831 -6.9597198747 -1.9648823869
H -0.4283087232 -6.3507613076 0.0643835310
H -2.0199442724 -5.6280971258 0.2640267174
H -2.2343409795 -4.6993038538 -3.2863707098
H -3.1839931525 -4.8931043154 -1.9596176819
H -0.2602805195 -5.8459358819 -3.5009931582
H 0.4656476676 -4.9303326852 -2.3372309701
H -1.3315475811 -7.6624925574 -1.8856195994
O -2.2968102357 -0.0313160540 -0.1690105832
C -3.0145770767 0.3474540448 -1.3829139667
S -4.7631296015 -0.2124299664 -1.1909821788
C -4.3652170223 -0.9737267337 0.3800970917
C -3.0938041351 -0.7894612675 0.7197019906
H -2.5992838815 -1.1284896062 1.6142321947
H -2.9735286559 1.4361545619 -1.4559924882
O -0.8577894502 -0.1509363406 -2.3010904200
C -2.2936352421 -0.3142752601 -2.5527461892
S -2.7869494008 0.4242139834 -4.1311767558
C -1.8341655083 -0.7895333628 -5.1673389189
C -0.4645504642 -0.9689566572 -4.5636586959
C -0.0519815094 -0.6283328700 -3.3405632326
H -1.6789111020 -0.2559402270 -6.1107710137
H 0.9817491326 -0.6692091856 -3.0260528842
H 0.2997705637 -1.3182414925 -5.2537134919
H -2.4887844950 -1.3920317583 -2.5622121486
C -2.6887429614 -2.0465639300 -5.4511015107
C -1.9666788883 -3.2412849379 -6.1281989641
N -2.9712876815 -4.1020300029 -6.6924684704
N -1.0110480268 -2.7664425785 -7.1207947906
O -1.2084999098 -3.9828504566 -5.1467928955
H -3.5224487970 -1.7378582998 -6.0889391052
H -3.1212286723 -2.4231426490 -4.5180391639
H -2.5390274743 -4.9455705058 -7.0676755093
H -3.6510767757 -4.3972108433 -5.9929232715
H -0.5089611641 -3.5693332552 -7.5020507664
H -1.5188897704 -2.3511975821 -7.9024965392
H -0.4556045742 -3.4265717933 -4.8836985850
C -5.4273853139 -1.7191158709 1.1471153688
C -5.2903784558 -1.6626804977 2.6948162559
N -3.9969866171 -2.2231715603 3.0993549475
N -5.4946147453 -0.3020550601 3.1458124643
O -6.3001067092 -2.4731516429 3.2649204168
H -6.4128726003 -1.3165302155 0.8915405939
H -5.4311358731 -2.7742125344 0.8482954168
H -3.8579151491 -1.9916560181 4.0845381728
H -4.0624300959 -3.2411711590 3.0414993329
H -5.3446110573 -0.2425277661 4.1526230385
H -4.8526917814 0.3408904505 2.6888721210
H -7.1303758888 -1.9659918113 3.2373930789
