94
# extracted from Terachem optimization
Mn 0.0204456646 0.1410252619 0.1177711728
O 0.2652967840 2.2675021055 0.0511073131
C 1.6530714716 2.7036530396 0.1977426760
C 1.6112037211 4.1463909948 -0.2173871220
C 0.4063012535 4.4849013512 -0.6821543840
C -0.5247589254 3.3032266739 -0.6232047807
H -1.4115830443 3.5018621058 -0.0199182856
H -0.8179030195 2.9309256183 -1.6136020457
H 2.4757324140 4.7937570528 -0.1303559576
H 1.9239337311 2.5565761426 1.2509121726
O 2.1692367224 0.4369165437 -0.4487702808
C 2.5636730515 1.8218427723 -0.6726422747
S 4.2920536153 2.1312956032 -0.2011905219
C 5.0735339668 0.9152498599 -1.3553470199
C 4.2680216046 -0.3535649603 -1.4047821164
C 3.0235860739 -0.5446875096 -0.9708844969
H 6.0216105064 0.6715744351 -0.8613346205
H 2.5296935442 -1.5094632057 -0.9799086450
H 4.7853289787 -1.2181892781 -1.8100953914
H 2.4046522882 2.0219129012 -1.7379675403
C 5.4062329288 1.5150371134 -2.7341978921
C 6.2946078135 0.6063799962 -3.5701870173
O 6.6489727424 -0.4967990990 -3.2172508936
H 4.4986897987 1.7382671404 -3.3131918802
H 5.9278399453 2.4739211157 -2.6115737897
H 6.6148748598 1.0298200710 -4.5435527800
C -0.0300233813 5.8245944448 -1.1988338808
C -1.2964481735 6.3773203904 -0.5484475133
O -2.0434291876 5.7316168469 0.1527819438
H 0.7733970682 6.5632947041 -1.0918139612
H -0.2403184556 5.7782384676 -2.2810903918
H -1.5075306206 7.4382489056 -0.7868512154
O 0.1238613188 -1.9974098053 0.3475994532
C 0.8302195453 -2.3941533844 1.5646560547
C 0.4548340809 -3.8379325863 1.7350283351
C -0.3520904295 -4.2531624578 0.7552297992
C -0.5989256367 -3.1431899547 -0.2290942720
H -0.1886036411 -3.3510343350 -1.2179069808
H -1.6589045752 -2.8858700659 -0.3156458354
H 0.8104084839 -4.4274465872 2.5719330828
H 1.9023305617 -2.2387608724 1.3828086685
O 0.3499466127 -0.1172239362 2.2460914236
C 0.3958122223 -1.4911068232 2.7323833939
S 1.5776365485 -1.6738150237 4.0992952724
C 0.7599803343 -0.4919188248 5.2675719861
C 0.2174338869 0.7031260361 4.5317933318
C 0.0794705051 0.8615105508 3.2175529187
H 1.5909872839 -0.1314232262 5.8857671437
H -0.2518746551 1.7799120501 2.7463193007
H -0.0546867897 1.5450205270 5.1612435022
H -0.6206682947 -1.7340996474 3.0595090225
C -0.2507886105 -1.1804729217 6.2036341652
C -0.7227725623 -0.2827111125 7.3384293435
O -0.4008202789 0.8781156900 7.4586829036
H -1.1354749189 -1.5399164564 5.6580582827
H 0.2043584817 -2.0733327737 6.6535189359
H -1.3911520538 -0.7735216348 8.0747985212
C -1.0061331579 -5.5982985161 0.6231869232
C -1.0375652290 -6.1739570196 -0.7852046943
O -0.8509593787 -5.5250942867 -1.7922620305
H -0.5546366403 -6.3260433597 1.3072444547
H -2.0645219256 -5.5132494710 0.9265088211
H -1.2899437777 -7.2511197398 -0.8383726321
O -2.1890769418 0.1014199511 0.0732984658
C -2.9200368823 0.3764043054 -1.1592460488
C -4.2336247193 -0.3247959275 -0.9596448217
C -4.3021683266 -0.8887100895 0.2468932588
C -3.0551753725 -0.5772639291 1.0311077144
H -3.2424572800 0.0983666862 1.8760612527
H -2.5430907776 -1.4733262342 1.3889687605
H -4.9912189482 -0.3546723511 -1.7344982391
H -3.0154497391 1.4661634986 -1.2515507196
O -0.7025962924 0.0590611590 -2.0819693373
C -2.1121709899 -0.1758793032 -2.3444316428
S -2.6704502796 0.6347036826 -3.8723398768
C -1.5802018806 -0.3194732658 -5.0236110702
C -0.2189880205 -0.5013943518 -4.4102539911
C 0.1425395253 -0.2967155220 -3.1446144116
H -1.4603088205 0.3519153349 -5.8817564723
H 1.1648461299 -0.3793811922 -2.7994062940
H 0.5633354654 -0.8038245875 -5.1002445777
H -2.2332739057 -1.2611247345 -2.4230041755
C -2.2294838163 -1.6189640429 -5.5341710461
C -1.4590887526 -2.2455151759 -6.6861800633
O -0.4257454627 -1.7954357464 -7.1292138079
H -2.3263472935 -2.3695649178 -4.7369479680
H -3.2506476357 -1.4184497541 -5.8864852569
H -1.9197715595 -3.1583919980 -7.1146516349
C -5.3952216179 -1.7465297442 0.8094157167
C -4.9525451954 -3.1780704394 1.0829157739
O -3.8150777141 -3.5789543264 0.9376572599
H -5.7843190997 -1.3434074202 1.7585632890
H -6.2610693774 -1.7813437512 0.1353414331
H -5.7530718920 -3.8539681131 1.4400439890
