124
# extracted from Terachem optimization
Mn 0.2941987395 0.2391277366 0.0245168837
O 0.5186066423 2.2761548609 0.0586123309
C 1.7454715373 2.6631407670 0.7616054390
C 1.9147486863 4.1080483473 0.4058472659
C 1.0165823092 4.4896231259 -0.5030853155
C 0.1036435709 3.3498615349 -0.8586939624
H -0.9445549408 3.5826845312 -0.6648341479
H 0.2171823892 2.9832190612 -1.8853599361
H 2.6586448948 4.7448013031 0.8660546384
H 1.5611422973 2.4942647963 1.8289736341
O 2.3881689506 0.3923708476 0.2649709380
C 2.8947734064 1.7684513820 0.2921035081
S 4.3074765419 1.9153051886 1.4197428009
C 5.4276391695 0.7791055877 0.4802681999
C 4.6656493793 -0.4299122869 0.0100335652
C 3.3413055575 -0.5797190066 -0.0557316683
H 6.1365966626 0.4459065030 1.2475880646
H 2.8554276221 -1.5038899485 -0.3453153294
H 5.2683620431 -1.2804079196 -0.2950593068
H 3.2225644505 2.0046518787 -0.7247222346
C 6.2342603549 1.5285049477 -0.6267843910
N 5.3914519589 1.7634906508 -1.7973138557
C 7.5843418829 0.8172255804 -0.8933137198
N 7.4564027568 -0.4715347777 -1.4698512714
Cl 8.6137774775 2.0022970296 -1.9396758760
H 6.4913527291 2.5077496188 -0.2148630966
H 5.2232549049 0.8914467060 -2.2976115726
H 5.8761626583 2.3895749061 -2.4393292186
H 8.1588413634 0.7448958521 0.0313045959
H 7.1079543233 -0.4273293579 -2.4253205096
H 8.3465739403 -0.9632150893 -1.4940093687
C 0.8732998172 5.8737017193 -1.0893535414
N 1.9676906008 6.7165566291 -0.6298926810
C -0.4895323123 6.5255119644 -0.7350454261
N -1.5621655378 5.8653919418 -1.4629911003
Cl -0.8608269730 6.4131038801 1.0381440291
H 0.8336574720 5.7654873788 -2.1934759807
H 1.8182832732 7.6863984476 -0.8997384524
H 2.8445112540 6.4240954040 -1.0557151966
H -0.4167810919 7.6049239801 -0.9217673385
H -2.4610122562 6.2293435270 -1.1500651762
H -1.4828277090 6.0966711378 -2.4544765450
O 0.3889930818 -1.7940600622 0.2248368810
C 0.7931806199 -2.1835712516 1.5872124612
C 0.5552795392 -3.6612132197 1.6069381508
C 0.0127954121 -4.0827114863 0.4635350316
C -0.2120525241 -2.9318401669 -0.4762999561
H 0.2981510453 -3.0484641184 -1.4327874457
H -1.2710296090 -2.7140673275 -0.6612236705
H 0.8552258101 -4.2928935888 2.4326021236
H 1.8518526249 -1.9231649372 1.6954631896
O 0.1070769217 0.0385657572 2.1373822567
C -0.0351614648 -1.3557389715 2.5619289746
S 0.5039403572 -1.5756128330 4.2797230075
C -0.8213785142 -0.4978744851 5.0081636505
C -0.9642149324 0.7621628328 4.1969023964
C -0.5396094052 0.9732468079 2.9501870183
H -0.4051049795 -0.2236943834 5.9845719819
H -0.6350920752 1.9223971960 2.4363496596
H -1.4556902947 1.5945673287 4.6910706466
H -1.0987899023 -1.6044465707 2.5124626407
C -2.1478554650 -1.2851891294 5.2519770593
N -2.8592888957 -1.5029594392 3.9919054663
C -2.9734797106 -0.6284504545 6.3860359016
N -3.4095451173 0.6846954865 6.1101494436
Cl -4.4004034910 -1.8321693638 6.7566123854
H -1.8606574395 -2.2700352243 5.6295746096
H -3.2989724603 -0.6452914586 3.6565321299
H -3.6153963860 -2.1646937558 4.1637864581
H -2.4103623724 -0.6386256135 7.3197663467
H -4.0565694364 0.7289938451 5.3268049965
H -3.8485254841 1.1257858491 6.9140790629
C -0.3067262049 -5.5121616976 0.0993852304
N -0.0893153832 -6.3688381300 1.2555005980
C 0.5419128997 -6.0325745293 -1.0953557904
N 0.0295916087 -5.5195899502 -2.3605460878
Cl 2.2915522271 -5.5595301609 -0.9725023286
H -1.3501649296 -5.5365965422 -0.2806721755
H -0.2327996589 -7.3481412212 1.0186241381
H -0.7510871426 -6.1446473906 1.9953388042
H 0.5671383544 -7.1277874439 -1.0445402884
H 0.5858299767 -5.9149443673 -3.1184922660
H -0.9194202031 -5.8739491608 -2.4939712891
O -1.7631239001 0.3527870394 -0.1850239053
C -2.1721843019 0.7477085403 -1.5313288020
C -3.6370342778 0.4390948784 -1.5642229047
C -4.0525816285 -0.0502655135 -0.3953179060
C -2.9104844640 -0.1478668927 0.5762262907
H -3.0435095063 0.4855192565 1.4554526298
H -2.6974598374 -1.1693688345 0.9108639134
H -4.2684954055 0.6611153670 -2.4142818223
H -1.9699577931 1.8195937273 -1.6340229033
O 0.0841506120 0.1662842298 -2.0985137035
C -1.3090857852 -0.0296593680 -2.5203378068
S -1.5636829047 0.5435374762 -4.2222156501
C -0.4176617196 -0.6897288865 -5.0039288236
C 0.8555278360 -0.7755952208 -4.2069374215
C 1.0499112676 -0.3730593672 -2.9500250697
H -0.1776441766 -0.2246479674 -5.9673686758
H 2.0170046902 -0.3937880712 -2.4616780131
H 1.7169386006 -1.1847440189 -4.7256550179
H -1.5062207596 -1.1044107520 -2.4882181507
C -1.1273557713 -2.0499190964 -5.2911870984
N -1.3027635448 -2.8111849506 -4.0553993429
C -0.4282182988 -2.7966820921 -6.4542283191
N 0.9107016036 -3.1671731771 -6.1935285786
Cl -1.5455252048 -4.2699766952 -6.8783876987
H -2.1275760418 -1.8050553269 -5.6580608827
H -0.4283704623 -3.2337555551 -3.7436257097
H -1.9404654176 -3.5842743226 -4.2408876281
H -0.4689657897 -2.1984082974 -7.3651790902
H 0.9876754197 -3.8521849739 -5.4453926635
H 1.3697159182 -3.5489064096 -7.0167922983
C -5.4724896078 -0.4233643275 -0.0419406215
N -6.3094470033 -0.3290892418 -1.2298012261
C -6.0675067013 0.4665552582 1.0834311606
N -5.5401863202 0.0718198683 2.3876904556
Cl -5.7100364101 2.2263328310 0.8427744579
H -5.4517428376 -1.4402568881 0.4039416645
H -7.2878675590 -0.4915268589 -1.0017888928
H -6.0431583355 -1.0372462923 -1.9102122146
H -7.1612718641 0.4083765169 1.0233973330
H -5.9211513695 0.7057050066 3.0901968789
H -5.9110399570 -0.8528721745 2.6166472092
