109
# extracted from Terachem optimization
Mn 0.1158718588 0.1633396778 0.1179181683
O 0.3678694484 2.2437675397 0.0852976374
C 1.7430833089 2.6938146309 0.4354983136
N 1.8685341223 3.9924273592 -0.1668677894
C 0.7252123291 4.2119557155 -0.9635311162
C -0.1177304218 3.1775288506 -0.8628251178
H -1.0505822058 2.9596175980 -1.3458585416
H 2.1730296367 4.7706415529 0.4090503304
H 1.8238079704 2.6902334452 1.5274290858
O 2.2534431870 0.3557106827 0.1904334376
C 2.7297886885 1.6914535893 -0.1749278319
S 4.3919950482 2.0379339084 0.4675335948
C 5.2242469350 0.6494452951 -0.3908100537
C 4.4416089441 -0.6252697243 -0.2497308736
C 3.1367892384 -0.7170152791 0.0066281925
H 6.1855655621 0.5206001513 0.1132588851
H 2.6103145705 -1.6554552164 0.1203919410
H 4.9969784797 -1.5505465493 -0.3744826442
H 2.7332594339 1.7606614617 -1.2653691047
C 5.4896715046 0.9184550266 -1.8938452324
O 4.7625938677 1.6165174302 -2.5672327265
C 6.6905215828 0.1672769282 -2.5197093701
N 7.6644164598 1.1410833081 -2.9555189391
O 7.2695199791 -0.7339537275 -1.5975208721
H 6.2649812965 -0.4576627350 -3.3228238727
H 8.2745698118 0.7476851020 -3.6696132348
H 7.2196924714 1.9685646335 -3.3475809000
H 8.0716431591 -0.2906535929 -1.2645044050
C 0.5992534080 5.4966353993 -1.6948492009
O 1.4767985068 6.3313974137 -1.5696287051
C -0.6808814098 5.7721792890 -2.5142033166
N -0.3612257175 6.6725287228 -3.5806605149
O -1.2437216203 4.5642245663 -3.0259980244
H -1.4300565655 6.1500413710 -1.7971961696
H -1.1339914622 7.2884262010 -3.8142986305
H 0.4593670332 7.2316982891 -3.3578029274
H -0.8896043957 4.5051897923 -3.9326416573
O 0.1333759840 -1.8994020262 0.3462114820
C 0.1757540271 -2.3896820893 1.7348552415
N -0.5510744483 -3.6323862128 1.6386606606
C -0.4160038060 -4.0760551577 0.3101415568
C -0.0446688221 -3.0528002150 -0.4720192636
H 0.1183916079 -2.9413660849 -1.5275444265
H -0.4174887112 -4.3322685827 2.3620809168
H 1.2428941658 -2.5010386689 1.9972347521
O -0.0326110138 -0.0400589974 2.2414707652
C -0.4991041510 -1.3701021593 2.6419883430
S -0.0898477504 -1.7382513612 4.3695728649
C -1.1514770674 -0.4130318370 5.0613998504
C -0.9475784146 0.8764619481 4.3085494091
C -0.4446009898 1.0063308660 3.0792327497
H -0.8221344004 -0.2567368804 6.0926118979
H -0.2834739778 1.9619034005 2.5964627868
H -1.2261417032 1.7875377533 4.8304311492
H -1.5819685788 -1.3997680623 2.5039160830
C -2.6568254066 -0.7771598277 5.0937604633
O -3.1302401493 -1.6355898950 4.3772376231
C -3.5484128721 0.0898266658 6.0077224048
N -4.4045415815 -0.7653377632 6.7905596301
O -2.7734223380 0.9293335392 6.8434323460
H -4.0817119726 0.7631895918 5.3141791674
H -5.2758870030 -0.3008578910 7.0325805506
H -4.6235996013 -1.6331584716 6.3076631568
H -2.7716217612 0.4948384095 7.7165657477
C -0.7142543151 -5.4998929086 0.0077485845
O -1.0591225672 -6.2236465833 0.9250273780
C -0.5045995095 -6.0458379865 -1.4195277372
N -1.5316893628 -7.0083576033 -1.7016443436
O -0.4941492231 -5.0125897837 -2.3961470833
H 0.5238729162 -6.4469217909 -1.4320897903
H -1.2096312910 -7.7271664812 -2.3435839575
H -1.8566704778 -7.4570009547 -0.8476121943
H -1.4174557916 -4.9062319400 -2.6956235614
O -1.9160840216 0.5003125247 -0.1131919254
C -2.4666291331 0.4136883157 -1.4736001203
N -3.7188776350 -0.2734851272 -1.2585972157
C -4.0959074426 -0.0078572573 0.0726817614
C -3.0314694905 0.4168658545 0.7672791303
H -2.8691392782 0.6732131645 1.7980048010
H -4.4504658050 -0.1702841451 -1.9556014237
H -2.5780620077 1.4494061692 -1.8386992364
O -0.1372218339 0.0126402972 -1.9904274773
C -1.5038300810 -0.3777588616 -2.3544675858
S -1.8670699780 -0.0406817753 -4.0986310891
C -0.6176459492 -1.2162702439 -4.7490239797
C 0.6935899081 -1.0401653740 -4.0276170130
C 0.8720901615 -0.4801533042 -2.8297872552
H -0.4635701542 -0.9454752763 -5.7979536636
H 1.8483620434 -0.3203234515 -2.3891955301
H 1.5804049327 -1.3826025830 -4.5516931975
H -1.6080981123 -1.4455598928 -2.1561089420
C -1.0793594522 -2.6944358417 -4.6961683153
O -1.9451411356 -3.0698377684 -3.9318020738
C -0.3243787820 -3.6902643123 -5.6053365964
N -1.2712243985 -4.2870597752 -6.5200271165
O 0.7156335017 -3.0542140349 -6.3217145669
H 0.1660231067 -4.3948797165 -4.9133797081
H -0.9288050392 -5.1827688253 -6.8617621613
H -2.1754220400 -4.4446657179 -6.0802870082
H 0.3641549253 -2.9075218227 -7.2194387193
C -5.5057131381 -0.2496800234 0.4696597904
O -6.2846297948 -0.6440365030 -0.3810111606
C -5.9655113938 0.0722091036 1.9058496622
N -6.9832178704 -0.8650707646 2.2858914116
O -4.8844605790 0.0546905842 2.8306149649
H -6.2917821138 1.1264303646 1.8843465263
H -7.6619837731 -0.4545735864 2.9204182346
H -7.4736315337 -1.2234734401 1.4690601179
H -4.8247236397 -0.8622808326 3.1617014695
