106
# extracted from Terachem optimization
Mn 0.0462259088 0.0546006180 -0.1424903113
O 0.6432860258 2.0693000963 -0.1364961094
C 1.7768551003 2.2846422387 0.7550201569
S 2.3203436020 4.0227704597 0.5187009686
C 1.4132137498 4.0877178385 -1.0236799539
C 0.6400631211 3.0191188501 -1.1962363570
H -0.0076565642 2.7935682005 -2.0271607393
H 1.4124025717 2.1323042831 1.7713578772
O 2.1387963829 -0.0002958812 0.1448170335
C 2.8526586041 1.2575124262 0.3990052089
S 4.0399300309 1.0945821424 1.7547152154
C 5.1183016856 -0.1665819978 0.9306115778
C 4.2715874183 -1.1749806662 0.2135066804
C 2.9758776779 -1.1012192513 -0.0942482734
H 5.6147802665 -0.6538131459 1.7797053123
H 2.4230943664 -1.9001490129 -0.5709156965
H 4.7707902384 -2.0954329481 -0.0829342090
H 3.3525622624 1.5149104591 -0.5399096670
C 6.2423926169 0.4346545031 0.0644910926
C 7.2931371753 1.1823775991 0.9016366536
N 7.8025988782 0.3134711530 1.9651366471
H 5.8332527568 1.0969451617 -0.7090246378
H 6.7282048614 -0.3988221646 -0.4634287475
H 8.0663786497 1.5693050085 0.2194802851
H 6.8239830447 2.0537371371 1.3719810000
H 8.5071214703 -0.3262856373 1.6006533947
H 8.2639360620 0.8633187029 2.6861742185
C 1.5740195431 5.2800591864 -1.9337678305
C 0.2689317621 5.7536870152 -2.5931339002
N -0.3253656037 4.7092424565 -3.4406083712
H 1.9910843200 6.1163870895 -1.3611171745
H 2.3211505791 5.0460782933 -2.7053359864
H -0.4551741219 6.0029285788 -1.8095224557
H 0.4901110181 6.6867166386 -3.1340621641
H -1.2385978093 5.0218201410 -3.7674188317
H 0.2377551138 4.5879818682 -4.2829386702
O -0.0549037489 -2.0126285195 0.0606255201
C 0.2708403743 -2.4414733564 1.4251495910
S -0.3239176510 -4.1783320939 1.6057361094
C -1.1139166453 -4.0930886166 0.0025897861
C -0.8839086852 -2.9415927321 -0.6180000039
H -1.2057780890 -2.6425186459 -1.6024748649
H 1.3580696915 -2.3996746017 1.5090943123
O -0.2481506145 -0.1333141069 1.9238842385
C -0.3754731717 -1.4965558655 2.4401258182
S 0.4659178182 -1.6677914894 4.0374723933
C -0.6065127747 -0.4680392641 4.9597949188
C -0.9603618372 0.7013756118 4.0892454033
C -0.7798613494 0.8492175487 2.7768117623
H 0.0539918718 -0.1237754919 5.7668039349
H -1.0336742068 1.7451211905 2.2231120714
H -1.4117741652 1.5510269358 4.5977098532
H -1.4478611546 -1.6925284143 2.5405361063
C -1.8196691839 -1.1234358408 5.6483773167
C -1.4037211467 -2.0632792630 6.7917765447
N -0.5419470055 -1.3511209289 7.7379440780
H -2.4398092690 -1.6592819233 4.9182628389
H -2.4429734175 -0.3142741485 6.0565431467
H -2.3147564002 -2.4922148169 7.2386565249
H -0.8323862496 -2.9016498024 6.3774970878
H -1.0983990989 -0.7738698909 8.3665801548
H -0.0349499581 -2.0080091586 8.3264040780
C -1.9097427534 -5.2722784977 -0.4935973641
C -1.9775851757 -5.4127594178 -2.0219083471
N -2.6309957729 -4.2592527779 -2.6667412670
H -1.4680876436 -6.1925446380 -0.0923377465
H -2.9245522061 -5.2243399530 -0.0720652764
H -0.9587282847 -5.4828171318 -2.4184332417
H -2.4744040234 -6.3701476723 -2.2406643367
H -2.6131015528 -4.3994674410 -3.6765485251
H -3.6205473391 -4.2497732265 -2.4159156290
O -1.9624560896 0.4607238574 -0.3969117253
C -2.2823089941 0.9070268398 -1.7529937888
S -4.1042946625 0.7235509112 -1.9814067989
C -4.2319186104 -0.0963030049 -0.3984260170
C -3.0698619272 -0.1565826089 0.2414448786
H -2.8796057978 -0.5853353137 1.2110152343
H -2.0042037390 1.9608018216 -1.8100936308
O -0.1136669124 -0.0077069001 -2.2508468050
C -1.4847532833 0.0823781221 -2.7640499960
S -1.5320657471 0.8822008342 -4.3918551648
C -0.5469949204 -0.4187355887 -5.2710527118
C 0.6136824956 -0.8406346741 -4.4179839773
C 0.8030443430 -0.6256326933 -3.1166674152
H -0.1629996336 0.1177267087 -6.1481171569
H 1.7091983199 -0.8858121251 -2.5853931650
H 1.4227777050 -1.3571515233 -4.9303573361
H -1.8677148590 -0.9409795314 -2.8254069141
C -1.3962078746 -1.5834263789 -5.8181695829
C -2.3265052459 -1.1422119426 -6.9583408198
N -1.5497444679 -0.5025482963 -8.0228598615
H -1.9728293296 -2.0585040797 -5.0136175194
H -0.6988916783 -2.3463333892 -6.1942069854
H -2.9161797341 -2.0137314998 -7.2854829169
H -3.0410965660 -0.4063331797 -6.5725647413
H -1.0992923430 -1.2041456054 -8.6086640548
H -2.1587644953 0.0322672956 -8.6378485074
C -5.5705149967 -0.6089517279 0.0664714770
C -5.7255652510 -0.7188759885 1.5904308304
N -4.7671255612 -1.6679989741 2.1853529602
H -6.3552855537 0.0617042444 -0.3040981970
H -5.7669740273 -1.5838005784 -0.4037146477
H -5.5449220413 0.2641461391 2.0391563352
H -6.7755792112 -0.9770101293 1.7960884950
H -4.8973241854 -1.6701941224 3.1966641527
H -5.0010209939 -2.6147023705 1.8836502904
