97
# extracted from Terachem optimization
Mn 0.1762665636 0.1131518925 0.0958938605
O 0.4779987451 2.3604721621 0.0985196136
C 1.8611178735 2.6539264459 0.5031416338
S 2.1700192659 4.4273268469 0.1398795668
C 0.7908709719 4.3940550742 -0.9907972918
C 0.0548424012 3.2866864995 -0.8725312383
H -0.8238639614 2.9868312903 -1.4214190782
H 1.9392093113 2.4504575003 1.5720444795
O 2.3332224756 0.3580195211 0.0928240014
C 2.7777099040 1.7106876188 -0.2841710287
N 4.1465689041 1.8811761467 0.1010473258
C 5.0792561546 0.9224615972 -0.5358086015
C 4.5577741313 -0.4624157125 -0.3014537113
C 3.2801588327 -0.6776179401 -0.0168754780
H 6.0396609647 1.0428446528 -0.0317987650
H 4.4340198340 2.8441997985 -0.0663270104
H 2.8182092561 -1.6435047069 0.1467979735
H 5.2267777840 -1.3107273687 -0.3950782059
H 2.5830852978 1.7901697624 -1.3620265674
C 5.1925879904 1.1901632104 -2.0661183339
O 4.1892273834 1.0110219609 -2.7531591162
C 6.4345949431 1.6980102368 -2.6694461487
C 7.5902505292 1.9296316786 -2.0284770456
H 6.3524421985 1.8783610630 -3.7387327586
H 8.4567927598 2.3008833313 -2.5675430240
H 7.7345253273 1.7648003274 -0.9645159227
C 0.6731713653 5.5244066265 -1.9710632489
O 1.6724487412 6.1891971552 -2.1897598840
C -0.6148407357 5.8022989780 -2.6482574144
C -1.8257207125 5.5954515961 -2.1156446437
H -0.5016550817 6.3194569186 -3.5979347620
H -2.7259700926 5.9089429049 -2.6355144529
H -1.9609447772 5.1639945966 -1.1276313273
O 0.2581783319 -2.1597440269 0.5227046551
C 0.4788043045 -2.3089887496 1.9644061332
S 0.2945210326 -4.0862086682 2.3869237776
C -0.3966424281 -4.3769514244 0.7677840596
C -0.3269696716 -3.3122537255 -0.0353348886
H -0.6212563800 -3.2052140315 -1.0701803347
H 1.4888181111 -1.9551500900 2.1822880854
O -0.2526184833 -0.0528310771 2.1877312119
C -0.5302723111 -1.4151743834 2.6874999274
N -0.3039977881 -1.4492233456 4.1021304841
C -1.1550350843 -0.5204523156 4.8798417285
C -1.0081826269 0.8470605870 4.2873611418
C -0.5827416095 1.0160484636 3.0422590314
H -0.7632542693 -0.5185476338 5.8988514055
H -0.3944808831 -2.4057003644 4.4423734664
H -0.4379541444 1.9650287723 2.5412124377
H -1.2662434997 1.7190952828 4.8780090330
H -1.5565144925 -1.6464285297 2.3712772434
C -2.6405209322 -0.9759660920 4.8356747213
O -3.2450553589 -0.8658416612 3.7707269099
C -3.2892756799 -1.5963205811 6.0016404292
C -2.7458830857 -1.7642461459 7.2167904353
H -4.3069161007 -1.9250043050 5.8039547356
H -3.3130523720 -2.2313131297 8.0164580155
H -1.7376334642 -1.4534413125 7.4757979803
C -0.9886216113 -5.7427407224 0.5911778103
O -1.1633145799 -6.3943250621 1.6118777642
C -1.3522444005 -6.2721725587 -0.7390586489
C -0.7635132191 -5.9465991543 -1.8958558361
H -2.0970745219 -7.0627855167 -0.6938489324
H -1.0463996032 -6.4390023594 -2.8207142298
H 0.0362935604 -5.2176384681 -1.9695198827
O -2.0876885119 0.1887253612 -0.2700690031
C -2.4389813391 0.3303313109 -1.6815747449
S -4.1586447534 -0.2964529628 -1.8857329492
C -4.3823241326 -0.1153965418 -0.1242203042
C -3.2385799619 0.0970971099 0.5329632040
H -3.0595055996 0.1241803079 1.6005240342
H -2.3737463147 1.3932807307 -1.9381962296
O -0.0997235879 -0.0186558636 -2.0652352074
C -1.4337441800 -0.4809561003 -2.4842499451
N -1.5741561168 -0.2578455418 -3.8917703644
C -0.6354825175 -1.0615235685 -4.7077177832
C 0.7437045377 -0.8374618083 -4.1638240246
C 0.9511562470 -0.3399858326 -2.9504999261
H -0.6867741077 -0.6622193874 -5.7227244900
H -2.5382060624 -0.3793636975 -4.1952518980
H 1.9218664407 -0.1024185043 -2.5324411539
H 1.6043297233 -1.0720602562 -4.7804651233
H -1.4865318956 -1.5325185956 -2.1839404371
C -1.0071969342 -2.5712859702 -4.6713502556
O -0.8967259889 -3.1695267468 -3.6024279458
C -1.5325884322 -3.2620070029 -5.8599797763
C -1.6935275234 -2.7324934544 -7.0821719162
H -1.7943092740 -4.3009983489 -5.6737892997
H -2.0870704565 -3.3325092585 -7.8972953461
H -1.4470057376 -1.7045320201 -7.3322414877
C -5.7585262078 -0.4378799180 0.3688837599
O -6.4728518978 -1.0779987940 -0.3899582366
C -6.2235239043 -0.0025698473 1.7008700069
C -5.7602283620 1.0595772641 2.3696304708
H -7.0767541204 -0.5683853898 2.0661981958
H -6.2028472614 1.3626904367 3.3133444603
H -4.9575960030 1.6843417241 1.9889130269
