112
# extracted from Terachem optimization
Mn -0.0494390456 -0.0385349680 -0.0781681074
O 0.2308351796 2.0723271566 -0.1032968747
C 1.6082035913 2.4452871360 0.2259419181
S 1.9514459940 4.0674299309 -0.5922491592
C 0.2031734995 4.2826981269 -0.8380203430
C -0.5067193055 3.1904379010 -0.5635384176
H -1.5702825065 3.0236175938 -0.6349281419
H 1.6651587029 2.5199261954 1.3168345625
O 2.0147123865 0.0690221737 0.0875838959
C 2.5770853434 1.3872590347 -0.2924525727
C 3.9432886087 1.5817664594 0.2996142966
C 4.7520357517 0.5366545284 0.5331530656
C 4.2350512010 -0.8088326293 0.2692328307
C 2.9262316532 -0.9981149391 0.0807418165
H 4.2675555733 2.5859719506 0.5543451423
H 2.4175554905 -1.9449711395 -0.0325205131
H 4.8822907457 -1.6787625699 0.2888065071
H 2.5791196054 1.4083532158 -1.3932025001
C 6.1307222095 0.7532521037 1.1464222595
O 6.1909573456 2.0144998679 1.7407807136
C 7.2718607254 0.6437478626 0.0835878395
O 7.9547293044 1.6332188953 -0.0844864398
C 7.5052702171 -0.6506544199 -0.6510069175
H 6.3075468964 -0.0406615300 1.8935945216
H 6.9710098292 2.4574707486 1.3406242549
H 7.4920177000 -1.5047743357 0.0356149978
H 6.7179163950 -0.8088065379 -1.3994005636
H 8.4678579386 -0.6068657769 -1.1637725154
C -0.2377420329 5.6181967880 -1.3838565791
O 0.7075325906 6.0199154735 -2.3337064946
C -0.3550332504 6.7237387574 -0.2834009054
O 0.3229758119 7.7167509417 -0.4425812207
C -1.3344336251 6.5509757011 0.8456062600
H -1.2397037693 5.5026607945 -1.8319395144
H 0.9433169522 6.9447067502 -2.0950346139
H -2.3570617367 6.6441254894 0.4565178531
H -1.2450788672 5.5616706476 1.3064652072
H -1.1738230836 7.3299896473 1.5928985432
O -0.0769274177 -2.1635117159 0.2201528003
C 0.0920446922 -2.5546142383 1.6204956108
S -0.7136414190 -4.2045428865 1.8226609569
C -0.6095902707 -4.4237610315 0.0577498142
C -0.3024389325 -3.3019387425 -0.5907784175
H -0.2122634085 -3.1235967062 -1.6521204225
H 1.1690738979 -2.6102869814 1.8115472200
O -0.1391245802 -0.1906060492 2.0217186964
C -0.5610197588 -1.5185673770 2.5224992662
C -0.1625006131 -1.6864184520 3.9600906274
C -0.1960161266 -0.6290651267 4.7871140436
C -0.5024133312 0.6845982739 4.2148837261
C -0.4344664597 0.8674309264 2.8914932188
H 0.1566211144 -2.6579511933 4.3234450206
H -0.4998678975 1.8103503354 2.3646859304
H -0.6895500186 1.5466020946 4.8460493503
H -1.6514458429 -1.5537217019 2.3780980467
C 0.1860812211 -0.7765353674 6.2556149695
O 0.9375345063 -1.9386065181 6.4385326795
C -1.0740867889 -0.8422920367 7.1786201389
O -1.2218124959 -1.8573051815 7.8277368662
C -2.0152964667 0.3311880285 7.2607315887
H 0.7629262884 0.1150255957 6.5580907670
H 0.4717643438 -2.4483125885 7.1369825505
H -1.4657911579 1.2591174892 7.4590401057
H -2.5533153197 0.4583004274 6.3128492600
H -2.7404167019 0.1594313669 8.0582059311
C -0.9363828148 -5.7888103410 -0.4918591180
O -2.0470029448 -6.2833358066 0.1972454303
C 0.2513873799 -6.7938571956 -0.3408877180
O 0.0452419222 -7.7811212186 0.3332177086
C 1.5357783726 -6.5466574847 -1.0852168175
H -1.1431740257 -5.6916156932 -1.5716316600
H -1.7786805608 -7.1687525229 0.5306380157
H 1.4082820372 -6.8705077030 -2.1269262950
H 1.8063475242 -5.4863509533 -1.0980998707
H 2.3381730713 -7.1393776789 -0.6416851924
O -2.0520752269 0.2915808855 -0.3212972215
C -2.4677507647 0.4193567432 -1.7218785120
S -4.2370371543 -0.0970793250 -1.8213127081
C -4.3566011125 0.1005305949 -0.0561793232
C -3.1783965354 0.2631395672 0.5429390458
H -2.9305898589 0.3688901591 1.5884783149
H -2.3446092852 1.4705649041 -2.0009273568
O -0.1985132012 -0.2757879732 -2.1000512954
C -1.5866328557 -0.4651591476 -2.5937208917
C -1.7025727233 -0.1017407304 -4.0451127409
C -0.6576461698 -0.2401652397 -4.8756527854
C 0.6275415343 -0.6625113089 -4.3115338339
C 0.8217475677 -0.6473185708 -2.9902563303
H -2.6455975575 0.2855481160 -4.4185052356
H 1.7539927201 -0.8297029928 -2.4731552431
H 1.4664534106 -0.9203393857 -4.9485298466
H -1.8313737825 -1.5197981572 -2.3981982116
C -0.7878087636 0.1305605980 -6.3491594876
O -1.9162930913 0.9285278391 -6.5405339529
C -0.9048398734 -1.1332362917 -7.2629127093
O -1.9280024219 -1.2466850006 -7.9059387630
C 0.2303400495 -2.1202605562 -7.3458817664
H 0.1277659822 0.6675625771 -6.6536147524
H -2.4491950563 0.4737247369 -7.2289641434
H 1.1838095170 -1.6089044090 -7.5229602761
H 0.3202837096 -2.6801182241 -6.4063875971
H 0.0375523469 -2.8246717471 -8.1569994495
C -5.7534546439 0.0064447373 0.5146244831
O -6.5001348968 -0.8301877031 -0.3218820843
C -6.4560029356 1.4005172830 0.6015672851
O -7.4521125542 1.5517251897 -0.0735152645
C -5.9346203558 2.4375101223 1.5596738577
H -5.6986590246 -0.3990940636 1.5381685859
H -7.2903710355 -0.3064312385 -0.5845536588
H -6.2650264696 2.1779831360 2.5743458911
H -4.8409684881 2.4786890975 1.5670215814
H -6.3498155608 3.4145877609 1.3053806208
