88
# extracted from Terachem optimization
Mn -0.3451871396 -0.3806128674 -0.4651982338
O -0.2976618794 1.9248074041 -0.4416356557
C 0.6808063829 2.3824305937 0.5019547925
S 0.7528782128 4.2057378626 0.4677452040
C -0.1407628839 4.2454379298 -1.1543911301
C -1.0324582794 3.0065051172 -1.1021448452
H -1.9397233851 3.2053166834 -0.5313418759
H -1.2677098774 2.6446928130 -2.1059473510
H 0.5937200581 4.1779508331 -1.9635457850
H 0.3826153149 2.0616475314 1.5038239757
O 1.7607837145 0.3270990663 -0.1752424866
C 2.0095661404 1.7352025945 0.0988018383
S 3.2330661076 1.9350184496 1.4373780330
C 4.6214387066 1.0984560875 0.5877071771
C 4.1631340409 -0.0196663047 -0.2940511193
C 2.9076117812 -0.3651164323 -0.5905253474
H 5.2303987556 0.6788908605 1.3985219161
H 2.6541385130 -1.2354665118 -1.1818863869
H 4.9562416432 -0.6163174965 -0.7365663167
H 2.3953959512 2.1726618844 -0.8263567640
C 5.5430766504 2.1329221689 -0.1835025664
O 6.5756072273 1.4337657317 -0.8135876148
H 4.9405289299 2.6255200409 -0.9541895737
H 5.8963503292 2.8868762376 0.5274784198
H 7.4082297882 1.5321596011 -0.3223514522
C -0.9405221258 5.5469958430 -1.3046414849
O -1.9224042075 5.5634974178 -0.2890502724
H -0.2550237182 6.4027436819 -1.2433191269
H -1.3847352161 5.5547352215 -2.3125180102
H -2.3477761896 6.4363516628 -0.2716745175
O 0.3438293837 -2.4218703654 0.3161817379
C 1.0780943267 -2.2916056152 1.5465425758
S 1.4180220084 -3.9670479396 2.2146363363
C 0.3097818853 -4.7524809704 0.9497836480
C 0.3879750622 -3.7809032517 -0.2237074026
H 1.3210548254 -3.9271074862 -0.7713853801
H -0.4694747457 -3.8619199780 -0.8959808785
H -0.7046741125 -4.8099267995 1.3572924445
H 2.0372104930 -1.8036487370 1.3511234918
O -0.4239200679 -0.3869609414 1.7323534868
C 0.2071197036 -1.4530357657 2.4904895013
S 1.2082561301 -0.7621703648 3.8497742917
C -0.1845085575 0.0394895022 4.7380100779
C -1.2496149560 0.5405266275 3.8107782248
C -1.3346413309 0.3770190927 2.4878769578
H 0.2714302948 0.8987725081 5.2456060634
H -2.1170614174 0.7980823362 1.8630230693
H -2.0480479544 1.0994282623 4.2906275612
H -0.6011367422 -2.0610594523 2.9070989951
C -0.7680523305 -0.9034241992 5.8612466269
O -1.8399498874 -0.2509014121 6.4839167461
H -1.1439784249 -1.8174593186 5.3875781633
H 0.0368477935 -1.1735131320 6.5526554167
H -1.5890568069 0.0448140365 7.3743573257
C 0.7887236943 -6.1651457082 0.5851282610
O 2.0272479104 -6.0363901824 -0.0781444464
H 0.8564165686 -6.7743627393 1.4965037341
H 0.0191181310 -6.6213672498 -0.0577196939
H 2.4213840129 -6.9153194311 -0.1995526967
O -2.3256439442 -0.6999991023 -0.6030423541
C -2.8186114785 -0.1855998216 -1.8773800326
S -4.5418788089 -0.7491079605 -2.0767574096
C -4.6991303902 -0.9285904523 -0.2417776534
C -3.3276213176 -1.4488198950 0.1720994787
H -3.0975426754 -1.2602812828 1.2216351150
H -3.2136180502 -2.5103418045 -0.0582011455
H -5.4471694265 -1.7129154337 -0.0840886166
H -2.7792938643 0.9019469014 -1.7949874826
O -0.5160638554 -0.6395730957 -2.4769448512
C -1.9059637007 -0.6924529231 -2.9913301811
S -2.1094281561 0.3569222884 -4.4511354471
C -0.9027305140 -0.5279146562 -5.5318785215
C 0.2802284493 -1.0200523555 -4.7502472662
C 0.4547372604 -1.0354963426 -3.4320574881
H -0.5420517495 0.2454199678 -6.2205945230
H 1.3561371968 -1.3794414777 -2.9438021969
H 1.0938526862 -1.4189522923 -5.3498382527
H -2.0892638430 -1.7454608446 -3.2204077887
C -1.5664694728 -1.6358428477 -6.3775940426
O -0.5135606730 -2.2513968002 -7.0868740112
H -2.0909372144 -2.3462875466 -5.7178288763
H -2.3130093908 -1.1744261234 -7.0370922020
H -0.8694614613 -2.7248388434 -7.8555551562
C -5.1473621267 0.3299648244 0.4967009176
O -4.0887967825 1.2967655537 0.4751741746
H -6.0536805412 0.7231353020 0.0239951778
H -5.3948991504 0.0537154760 1.5329145581
H -4.4678596796 2.1520019762 0.7356935683
