88
# extracted from Terachem optimization
Mn -0.2147924177 -0.1583293876 -0.2209985147
O 0.3909561353 1.8269550304 -0.2512673189
C 1.5077052770 2.0843757194 0.6445499327
S 2.0164470267 3.8206272399 0.4295530417
C 1.1972032733 3.8939323703 -1.2257179258
C -0.0018633381 2.9633463385 -1.0836855270
H -0.8425248206 3.4625965451 -0.6022264071
H -0.2933991752 2.5376016125 -2.0458467739
H 1.8899005458 3.5239173380 -1.9885810509
H 1.1530562257 1.9429919101 1.6679755703
O 1.8852261581 -0.2155330903 0.0598955426
C 2.5851198006 1.0510527545 0.3104424118
S 3.7570452184 0.9101202771 1.6887212136
C 4.8374023729 -0.3656126050 0.9120962659
C 4.0255316949 -1.3779324476 0.1571381668
C 2.7356854995 -1.3094157086 -0.1676704293
H 5.2985946283 -0.8832510040 1.7615039883
H 2.2044203811 -2.1115430595 -0.6631651717
H 4.5554107304 -2.2765483288 -0.1442420417
H 3.1044622961 1.2942038683 -0.6211970194
C 5.9682811981 0.2618444521 0.0760358618
O 6.6750365904 -0.8157435572 -0.5074470582
H 5.5403759532 0.9309159646 -0.6882561142
H 6.5977183971 0.8698140312 0.7396140746
H 7.5326853007 -0.4965140428 -0.8284842943
C 0.7884367500 5.3248866074 -1.5968270112
O -0.2066930934 5.7619526074 -0.6924138818
H 1.6793272678 5.9671029708 -1.5803844362
H 0.4168694659 5.3078264539 -2.6342850768
H -0.2923072261 6.7252099326 -0.7624852920
O -0.5514953156 -2.1767785824 0.2606184703
C -0.0843545689 -2.5356629808 1.5847999229
S -0.7698883503 -4.1978247689 1.9519429258
C -1.1486418458 -4.5301251659 0.1633909414
C -0.5547267373 -3.3455624991 -0.6070506495
H 0.4713576677 -3.5756840258 -0.9028284597
H -1.1511036615 -3.0748144183 -1.4789512511
H -2.2367928328 -4.5591057250 0.0591953147
H 1.0103095940 -2.5555098754 1.5835643324
O -0.5067642442 -0.1883949709 1.8759087738
C -0.6147498046 -1.4809460343 2.5487894721
S 0.3170390977 -1.5105491459 4.1047131210
C -0.6645626942 -0.1897780678 4.9412477217
C -1.1009313841 0.8777093527 3.9768077313
C -1.0006267587 0.8798309700 2.6477349810
H 0.0423866938 0.2681239524 5.6433430544
H -1.3139947448 1.7010845044 2.0143951506
H -1.5501799861 1.7562642395 4.4307561761
H -1.6810139086 -1.6348269380 2.7366089167
C -1.8277781171 -0.7687618962 5.7667288139
O -2.4809364310 0.3382093494 6.3584659125
H -2.5028216184 -1.3425180799 5.1110683031
H -1.4157230611 -1.4607153178 6.5132035744
H -3.0367136083 0.0272787012 7.0899285794
C -0.5677640766 -5.8659776663 -0.3172116412
O 0.8420939635 -5.7561546719 -0.3424241261
H -0.9127926499 -6.6676518717 0.3483825768
H -0.9737870882 -6.0756910486 -1.3207824419
H 1.2299257880 -6.6436601756 -0.3809747208
O -2.2445114772 0.2079559892 -0.5078808254
C -2.5511139714 0.6105384098 -1.8676017499
S -4.3577676693 0.4479456381 -2.1051118529
C -4.6012472498 0.6893012463 -0.2917347141
C -3.4217478253 -0.0662353678 0.3140297823
H -3.1920077469 0.2800535733 1.3227715796
H -3.5984842741 -1.1447505765 0.3161370791
H -5.5328373943 0.1720914713 -0.0396326236
H -2.2578776867 1.6561238987 -1.9584813121
O -0.3798722207 -0.3038504422 -2.3267400882
C -1.7538334280 -0.2555527972 -2.8372619586
S -1.8251501766 0.4678517056 -4.5022146609
C -0.7903582941 -0.8175012873 -5.3286891441
C 0.3600962598 -1.2288526047 -4.4541911157
C 0.5385080565 -0.9640122916 -3.1621058045
H -0.3687708693 -0.3016569603 -6.1993178643
H 1.4397190714 -1.2089285396 -2.6156696925
H 1.1514006407 -1.7849444350 -4.9475731720
H -2.1170614846 -1.2873877005 -2.8454910009
C -1.6304278532 -2.0019063815 -5.8445097628
O -0.7097863502 -2.9467954315 -6.3541435373
H -2.2294460442 -2.4225652138 -5.0199860086
H -2.3262939998 -1.6328767062 -6.6090073125
H -1.1655383165 -3.5329882814 -6.9778683064
C -4.7179587262 2.1459155799 0.1533135302
O -3.4516835690 2.7869173468 0.0092097494
H -5.4918486522 2.6433885974 -0.4434764538
H -5.0406897502 2.1558450324 1.2065000343
H -3.5795961203 3.7392323554 0.1435681313
