124
# extracted from Terachem optimization
Mn -0.2935823951 -0.0118044385 0.1763190717
O -0.0942275342 2.0628519023 0.1303110322
C 1.0887215751 2.5652530099 0.8201808702
S 0.9892404552 4.3850621229 0.6975270846
C 0.0076535073 4.2046592150 -0.7962060869
C -0.4362889122 2.9401604535 -0.9201137168
H -1.0728037235 2.5211361816 -1.6786477171
H 1.0181939529 2.2367902580 1.8572963335
O 2.1080293517 0.5088086582 0.1476567651
C 2.3287879734 1.9541728608 0.1166088441
C 3.6349697916 2.3680482231 0.7105943077
C 4.6873620335 1.5042482619 0.8504966980
C 4.4410477852 0.1001061909 0.5344841708
C 3.2050668011 -0.3256552842 0.2288328193
H 3.7293402978 3.4162916732 0.9744560891
H 2.9275055322 -1.3543653739 0.0327427793
H 5.2616922566 -0.6061966017 0.5807338869
H 2.2601583362 2.2515610098 -0.9451275615
C 6.0139430706 1.9539506214 1.3247058811
C 6.4501650175 3.1998692245 1.0447170332
C 6.9124079971 0.9824460324 2.1017871098
C 6.2837414141 0.5030918506 3.4080969664
O 7.2098538327 -0.1770524155 1.3171547271
H 7.4247182834 3.5403397289 1.3828180043
H 5.8794795290 3.9070465186 0.4496318792
H 7.8393292036 1.5184640368 2.3390416568
H 5.3529241924 -0.0470441446 3.2280230357
H 6.9799369732 -0.1693887645 3.9164251631
H 6.0692699211 1.3507944614 4.0663213148
H 7.9220587394 0.0393637032 0.6933605421
C -0.2922182116 5.3454409355 -1.6589616627
C 0.1853319745 6.5700227664 -1.3700232943
C -1.1314020451 5.1313924318 -2.9173715405
C -0.3029490911 4.5891142575 -4.0877897600
O -2.2243055935 4.2485000942 -2.6055534849
H -0.0686005200 7.4307635588 -1.9807134948
H 0.8438480986 6.7687184239 -0.5288600078
H -1.5309516645 6.1147809782 -3.1918959596
H 0.1154878588 3.6041660519 -3.8534407635
H -0.9325050534 4.4899354006 -4.9787257770
H 0.5196750131 5.2681902846 -4.3322451879
H -2.9138453702 4.3992582702 -3.2713439576
O 0.0321178294 -1.9662089959 0.4198832142
C 0.3030669188 -2.3165093216 1.8185551006
S 0.0078349197 -4.1168814941 1.9483276198
C 0.4065932566 -4.2660589584 0.1979891569
C 0.3565992399 -3.0784039035 -0.4207193899
H 0.5178040680 -2.8411141330 -1.4600604326
H 1.3587149599 -2.0844938279 2.0042416592
O -0.5699677412 -0.1174857596 2.1466000256
C -0.5983573037 -1.4904366048 2.7214975223
C -0.1234949830 -1.4770153060 4.1470711754
C -0.3973367391 -0.4264614132 4.9523716880
C -1.0436379030 0.7442399131 4.3313618598
C -1.1010047140 0.8823454033 3.0062767642
H 0.4152488690 -2.3485341616 4.5073883106
H -1.4772833857 1.7299861941 2.4482155593
H -1.4168680852 1.5385401606 4.9681690232
H -1.6427269787 -1.8212488146 2.6188189889
C -0.0434616159 -0.4051598939 6.3951369422
C -0.1871482501 -1.5096947330 7.1432204031
C 0.4568560976 0.9001674803 7.0150565707
C 1.6691199698 1.4891881531 6.3001309239
O -0.5720665587 1.9010600916 6.9921928103
H 0.0814501229 -1.5151490117 8.1960640047
H -0.5956992219 -2.4351332797 6.7469743892
H 0.7381707926 0.6820332944 8.0528236332
H 1.4236169799 1.7568134210 5.2650672654
H 1.9934845295 2.3974669663 6.8152145577
H 2.4968199218 0.7727644979 6.2922710175
H -1.1969757178 1.7122395459 7.7113118666
C 0.7133397800 -5.5843287664 -0.3720572136
C 1.0704223736 -6.6066713396 0.4230743938
C 0.5690645247 -5.7946787861 -1.8752618321
C -0.8915778633 -5.9744352529 -2.3048174270
O 1.1775179406 -4.6762252339 -2.5409576496
H 1.3017905069 -7.5827753922 0.0081943640
H 1.1573960467 -6.5165283659 1.5016008878
H 1.1253167304 -6.7078399565 -2.1206844472
H -1.4941301246 -5.0979812195 -2.0414691780
H -0.9504445053 -6.1205947302 -3.3895114368
H -1.3315180250 -6.8546756188 -1.8260629085
H 1.2514694365 -4.9036636533 -3.4814212607
O -2.6449310800 0.0087526855 -0.2350938907
C -2.9111604926 0.1568430435 -1.6551573649
S -4.6055634079 -0.5056263845 -1.9410241116
C -4.9375076719 -0.4154032814 -0.1938781787
C -3.7951715683 -0.1608306860 0.5009479481
H -3.6975408073 -0.0730227508 1.5730852467
H -2.8875683229 1.2293638648 -1.8814664301
O -0.5460087646 -0.0837798080 -1.9508868143
C -1.8454473964 -0.6008816128 -2.4362421190
C -1.9767038190 -0.4216273166 -3.9241091286
C -0.9007857142 -0.5683955844 -4.7290643869
C 0.4101251123 -0.6979049080 -4.0689875202
C 0.5532324691 -0.4309031722 -2.7704778678
H -2.9650924561 -0.2271726216 -4.3293056133
H 1.4895836784 -0.3636140374 -2.2326328281
H 1.2827150126 -0.9219026911 -4.6725675002
H -1.8705839666 -1.6605132222 -2.1350694823
C -0.9927568897 -0.5541750305 -6.2123019700
C -2.0463010998 -1.1120904510 -6.8291451535
C 0.1482986339 0.0568621370 -7.0285725040
C 0.4559784952 1.5068302025 -6.6680846300
O 1.3596895895 -0.6912242252 -6.8397247961
H -2.1351355742 -1.1015819465 -7.9120292229
H -2.8420257266 -1.6173505663 -6.2887247977
H -0.1486255522 0.0174038103 -8.0839413581
H 0.7785792687 1.5964212096 -5.6244441292
H 1.2631332445 1.8784951908 -7.3050185706
H -0.4279598017 2.1349587766 -6.8186807974
H 1.3022395040 -1.5015773515 -7.3715004521
C -6.2824032318 -0.6135809113 0.3348181370
C -7.3579967628 -0.5006754741 -0.4763044323
C -6.4784190757 -1.0011844763 1.7979677516
C -6.2625957309 -2.5034665495 2.0268944058
O -5.5833189619 -0.2179598700 2.5972793466
H -8.3641172493 -0.6438446855 -0.0944977704
H -7.2818681578 -0.2458867921 -1.5294497913
H -7.5135755754 -0.7453237840 2.0547970378
H -5.2425073715 -2.7967157561 1.7556882231
H -6.4242064727 -2.7461747228 3.0829410128
H -6.9662639663 -3.0983364288 1.4366172572
H -5.8656736645 -0.2976717367 3.5225133812
