88
# extracted from Terachem optimization
Mn -0.0045550473 0.1246315649 -0.1556343801
O 0.6150836040 2.1523169853 -0.1856001356
C 1.7224956670 2.3459277851 0.7473570753
S 2.2556487577 4.0916783072 0.5605215650
C 1.5967348134 4.0518418096 -1.1010030421
C 0.7962870917 3.0091654955 -1.3032547914
H 0.2595511650 2.7108046095 -2.1905866544
H 1.3199275219 2.1854855073 1.7473616837
O 2.0973417623 0.0706111745 0.0621678060
C 2.8052393827 1.3231434784 0.3965027142
S 3.9386034023 1.0916028368 1.7893684295
C 5.0395743963 -0.1313758982 0.9435584514
C 4.2238357278 -1.1233668405 0.1645828516
C 2.9402849221 -1.0226540189 -0.1851198383
H 5.5219784765 -0.6575154280 1.7734824454
H 2.4008916369 -1.8109696320 -0.6950379091
H 4.7320305132 -2.0362937016 -0.1352283012
H 3.3749806231 1.6009857798 -0.4950510155
C 6.1502046532 0.5669742534 0.1291677950
N 5.6632259064 1.2125131265 -1.0408792877
Cl 7.4497087364 -0.7326438462 -0.2164072266
H 6.6577310211 1.2906552028 0.7658654455
H 6.3510854129 1.8606347299 -1.4176772028
H 5.4430485623 0.5406536129 -1.7741030884
C 1.9419859310 5.1017967806 -2.1139029586
N 3.3152898864 5.1164250511 -2.4282667316
Cl 1.2629456686 6.7283894913 -1.4295969224
H 1.3550213442 4.9497330736 -3.0198012336
H 3.5283235928 5.7566900329 -3.1890481848
H 3.9097372832 5.3408135591 -1.6338313050
O -0.0752456812 -1.9714232481 0.0730526017
C 0.3555215490 -2.3093852324 1.4392266592
S -0.0357866150 -4.0880069505 1.6975522477
C -1.1846964279 -4.0016056131 0.3350259263
C -1.0626602843 -2.8834158330 -0.3736983377
H -1.5706332352 -2.5803872121 -1.2768512582
H 1.4349990497 -2.1620987517 1.4644586412
O -0.3003635151 -0.0274466661 1.8689795494
C -0.3436023197 -1.3856463480 2.4350445023
S 0.4858585029 -1.4313582197 4.0464152057
C -0.7012827806 -0.2864093211 4.8901313793
C -1.0685952144 0.8654306820 3.9973477284
C -0.8812449616 0.9643048225 2.6818736626
H -0.1236448920 0.0973322541 5.7370206764
H -1.1495570407 1.8331744815 2.0933234348
H -1.5436067060 1.7164417528 4.4791998325
H -1.3990779190 -1.6380570180 2.5805187116
C -1.9194783865 -1.0488588822 5.4612374465
N -2.8393225345 -1.4622114084 4.4501230284
Cl -2.6884077342 0.0536981275 6.7503681856
H -1.5694177658 -1.9168289341 6.0187718073
H -3.4939718207 -2.1498276030 4.8178892744
H -3.3894541608 -0.6703335908 4.1199785164
C -2.1576013978 -5.1077594295 0.0533685885
N -3.0791022501 -5.2910838000 1.1060571741
Cl -1.1267778239 -6.6289169929 -0.3779325319
H -2.6933573737 -4.8991995733 -0.8728654315
H -3.7938613917 -5.9757510964 0.8715682078
H -2.6393274542 -5.5688689710 1.9805800063
O -2.0031450452 0.5810203957 -0.3705183620
C -2.2774627384 1.0812842094 -1.7189243205
S -4.1034822738 1.0636795377 -1.9346452275
C -4.2075545432 -0.1304644569 -0.6137257170
C -3.0715695182 -0.2449656197 0.0668590821
H -2.8564154878 -0.8254455987 0.9497398780
H -1.9183732650 2.1106132561 -1.7425798920
O -0.1555453941 0.0679275708 -2.2204121193
C -1.5357715461 0.2030826900 -2.7283880856
S -1.5671189028 0.9734105129 -4.3683745057
C -0.5724072379 -0.3318491264 -5.2272218564
C 0.6229129485 -0.7056206364 -4.3991651620
C 0.7833638941 -0.5051761087 -3.0924849853
H -0.2275503960 0.1766512058 -6.1326689183
H 1.6989519384 -0.7221125140 -2.5596181650
H 1.4568319556 -1.1658412107 -4.9223377649
H -1.9519027078 -0.8058806253 -2.7973649386
C -1.4432165132 -1.5293343083 -5.6657495810
N -1.8148687837 -2.3744948550 -4.5749637159
Cl -0.4895650612 -2.4237503995 -6.9912107890
H -2.3363898417 -1.1641448872 -6.1714012658
H -2.5342524180 -3.0339027394 -4.8660650735
H -1.0136187265 -2.9219552569 -4.2626326469
C -5.4753167104 -0.8779312848 -0.3228545300
N -5.8832273607 -1.6873613590 -1.4048152157
Cl -6.7358094026 0.4113032931 0.2289154067
H -5.3415435577 -1.4948296005 0.5660729211
H -6.6738583714 -2.2784015162 -1.1591180639
H -6.1266884837 -1.1547531790 -2.2371396174
