112
# extracted from Terachem optimization
Mn -0.1411986965 -0.1446647839 -0.0806607656
O 0.1827631923 1.9851148123 -0.0539029857
C 1.5579957737 2.3389524357 0.2716101165
S 1.8142292925 4.0697271765 -0.3135476152
C 0.0404604178 4.3017759987 -0.3069488019
C -0.6146154075 3.1491426545 -0.1795697286
H -1.6795684765 2.9694043820 -0.1667350690
H 1.6606361116 2.2800014347 1.3611181579
O 1.9920220263 0.0134680006 -0.0606006149
C 2.4980692998 1.3590846565 -0.4129430132
C 3.9296745824 1.5212445898 0.0223945351
C 4.7672975305 0.4699073973 -0.0054587819
C 4.2075255392 -0.8425619605 -0.3415224595
C 2.8866045894 -1.0380255310 -0.3228361845
H 4.2656071440 2.5138837140 0.3119909272
H 2.3702078119 -1.9841462756 -0.4232848643
H 4.8613794788 -1.6911126394 -0.5131101692
H 2.3745522375 1.4460681731 -1.5035128530
C 6.2643818687 0.5740743937 0.2977074539
N 7.0812754538 0.3590307554 -0.8886578792
C 6.6525302482 -0.3678228995 1.4189640413
C 7.7241656809 -1.1602665305 1.4123747325
H 6.4499609707 1.6052967027 0.6307639433
H 7.0085266493 -0.5887896339 -1.2502584359
H 6.8598807022 1.0147521919 -1.6325935763
H 5.9919232456 -0.3470644159 2.2853862175
H 7.9547852324 -1.7985367666 2.2600821636
H 8.4226858970 -1.1700545485 0.5814101319
C -0.5534293844 5.6857655242 -0.5173956862
N 0.0456116867 6.4261377356 -1.6217871569
C -0.5300198152 6.5638253570 0.7198598012
C -0.1938860613 6.2038115196 1.9564503089
H -1.6092069750 5.5234324816 -0.7852358789
H 0.9705634598 6.7854209814 -1.3982227645
H 0.0868078411 5.8942277854 -2.4864963463
H -0.8355718916 7.5865392741 0.5065572208
H -0.2210359246 6.9185880789 2.7729487482
H 0.1188487387 5.1935693454 2.2093557936
O -0.1786771602 -2.2329289718 0.1657861072
C 0.1222184004 -2.6304581365 1.5419112658
S -0.5134831074 -4.3476639532 1.7505775910
C -0.5005876014 -4.5392682965 -0.0278138841
C -0.3360582697 -3.3784917688 -0.6589490212
H -0.3145743307 -3.1686096926 -1.7184848955
H 1.2116879116 -2.6034446461 1.6536551735
O -0.1540964770 -0.3073145996 2.0216068271
C -0.5451570961 -1.6526667054 2.4947286521
C -0.1326672179 -1.8461916606 3.9283278327
C -0.1914867732 -0.8081943111 4.7818637423
C -0.5334516974 0.5080371453 4.2341575505
C -0.4681224837 0.7285167514 2.9180180172
H 0.1671885362 -2.8403022101 4.2502024933
H -0.5563161936 1.6810271585 2.4117994666
H -0.7425148959 1.3419274903 4.8958549357
H -1.6365657976 -1.7062803523 2.3575632929
C 0.0899508607 -0.9293984471 6.2820674169
N -1.1090205855 -0.7328730963 7.0844824189
C 1.1992631042 0.0151341882 6.6971560011
C 1.1728040649 0.7954678896 7.7772440567
H 0.4277396095 -1.9606236367 6.4590041287
H -1.4744224267 0.2142016306 7.0229210377
H -1.8463153281 -1.3893324972 6.8442120848
H 2.0749665537 0.0074712894 6.0486342121
H 2.0133849792 1.4362150692 8.0263594303
H 0.3325268325 0.7935504375 8.4647074904
C -0.7438624055 -5.9059897042 -0.6506676699
N -1.8503248893 -6.6421233700 -0.0524280322
C 0.4799965478 -6.8032579932 -0.6639657405
C 1.7260344719 -6.4717784237 -0.3335638660
H -1.0239215350 -5.7145348071 -1.6981673206
H -1.6211007547 -7.0288014630 0.8598153120
H -2.7090912381 -6.1029176954 0.0087593161
H 0.2463665239 -7.8146991428 -0.9913690877
H 2.5300791108 -7.1990050205 -0.3874762862
H 1.9995277723 -5.4737789342 0.0005198805
O -2.1664036878 0.2056442149 -0.3015222819
C -2.5847923736 0.4191483336 -1.6832030286
S -4.3846758749 0.0432125506 -1.7473227365
C -4.4717519767 0.3948497194 0.0074760947
C -3.2652209722 0.4239206656 0.5718128606
H -2.9854642175 0.5581783485 1.6069803673
H -2.4097868675 1.4751907893 -1.9196086024
O -0.3562462787 -0.2690206058 -2.1648351680
C -1.7570503816 -0.4690197374 -2.5957942933
C -1.9283834473 -0.1216606950 -4.0500161323
C -0.9248848325 -0.3334900990 -4.9191964052
C 0.3600975463 -0.7938722795 -4.3836208340
C 0.6161640920 -0.7176140882 -3.0755170668
H -2.8928812598 0.2660021481 -4.3691585162
H 1.5678182060 -0.8981227836 -2.5927722156
H 1.1534766672 -1.1083371160 -5.0530930758
H -1.9899035079 -1.5239512849 -2.3832867436
C -1.0503384038 -0.0994124329 -6.4271811089
N -0.9697925897 -1.3359605003 -7.1908849980
C -0.0223136333 0.9111919882 -6.8932856838
C 0.7367102353 0.7824121335 -7.9811915433
H -2.0516568989 0.3206604361 -6.5999515221
H -0.0560379024 -1.7782553215 -7.1294903935
H -1.6819403480 -2.0062349087 -6.9155555201
H 0.0549084194 1.8059367531 -6.2760720666
H 1.4419346544 1.5570736703 -8.2671745850
H 0.6546989796 -0.0773112485 -8.6391787966
C -5.8240790950 0.5392955533 0.6875984733
N -6.7976250172 -0.4686366089 0.2873767635
C -6.4534924748 1.9097662487 0.5164594469
C -5.8924704487 2.9930198429 -0.0156092683
H -5.6412252801 0.3910171147 1.7631044329
H -7.1721572622 -0.3105150505 -0.6448211881
H -6.4512986845 -1.4205277639 0.3635729132
H -7.4744677682 1.9448967707 0.8920169396
H -6.4369039046 3.9296498873 -0.0820385711
H -4.8763042737 2.9966972725 -0.4032034136
