82
# extracted from Terachem optimization
Mn 0.0313792695 0.0349411381 0.0167203224
O 0.4350956096 2.3629589825 0.0716711309
C 1.8233756223 2.5905201923 0.4434052335
S 2.1965916500 4.3544510882 0.0884789287
C 0.7460283750 4.4534715495 -0.9366139331
C -0.0194252109 3.3457602855 -0.8028443840
H -0.9777785565 3.1370434959 -1.2552290412
H 1.9057760974 2.3933115731 1.5131570587
O 2.1869313010 0.2624105472 -0.0086209878
C 2.7132738572 1.6043860585 -0.3466049574
C 4.1656173672 1.7413500546 -0.0208714890
C 4.9996653238 0.6733641082 0.1024777352
C 4.4047744878 -0.6607574590 -0.0231370812
C 3.0807381308 -0.8178563409 -0.0621782151
H 4.5523970670 2.7541518994 0.0435956677
H 2.5558773000 -1.7644866320 -0.1064944723
H 5.0245320225 -1.5481216313 -0.0666669609
H 2.5084660874 1.7503784044 -1.4199602330
C 6.4214896338 0.8652462695 0.3543273919
C 7.3363795617 -0.1116104209 0.5041169085
H 6.7470935763 1.9011183420 0.4189119681
H 7.0993340717 -1.1704732000 0.4576583122
H 8.3785795689 0.1328301469 0.6822164243
C 0.4249023993 5.6077084912 -1.7474691607
C 1.2150178956 6.6861165545 -1.9042034881
H -0.5418253490 5.5711368502 -2.2451461967
H 2.1931068975 6.7762184697 -1.4376022968
H 0.8958728272 7.5228641840 -2.5165824499
O 0.1025838834 -2.3501032638 0.5093002169
C 0.4229321710 -2.5062432269 1.9198091556
S 0.0616059902 -4.2522612455 2.3776884813
C -0.8098678493 -4.4808599804 0.8472771939
C -0.6617882498 -3.4047938497 0.0365054614
H -1.0393183864 -3.2731406844 -0.9672897367
H 1.4889824251 -2.3023646032 2.0316061863
O -0.0254351998 -0.1658006629 2.1704805863
C -0.3975471286 -1.4865362762 2.7291586328
C -0.1314771542 -1.5553316360 4.1999059590
C -0.1655283213 -0.4486365084 4.9888842780
C -0.3781852345 0.8406247482 4.3213488637
C -0.2919995062 0.9437491393 2.9938314182
H 0.0165130147 -2.5402428927 4.6321227668
H -0.3584251203 1.8605689777 2.4216235474
H -0.5743062336 1.7403048074 4.8923206066
H -1.4629046857 -1.6308091373 2.4843523214
C 0.0194801488 -0.5499069524 6.4309012200
C 0.0229283169 0.4767698704 7.3012721580
H 0.1605659837 -1.5591549164 6.8114949431
H -0.1069008175 1.5147840608 7.0089103545
H 0.1600547181 0.2981592476 8.3628473998
C -1.5316587377 -5.6877585611 0.5129007960
C -1.6948710016 -6.7445800612 1.3321861093
H -1.9540439576 -5.7136895992 -0.4893265221
H -1.3002984713 -6.7757048057 2.3450767118
H -2.2390869850 -7.6229702129 1.0015336671
O -1.9469163937 0.2870398673 -0.1623167267
C -2.4659524932 0.3222405044 -1.5334545893
S -4.1442688231 -0.4145769377 -1.4554893654
C -4.2460901780 0.1187800707 0.2551673924
C -3.0383252296 0.4295323236 0.7501356088
H -2.7533558837 0.7717454690 1.7333141446
H -2.5270550037 1.3791184738 -1.8137406109
O -0.1445004015 -0.1992839064 -1.9815218737
C -1.5359091017 -0.4492000615 -2.4625478066
C -1.6946119570 -0.0304230637 -3.8910531742
C -0.6722776691 -0.1794272166 -4.7668341378
C 0.6088910520 -0.6467632384 -4.2143965826
C 0.8483640743 -0.6217450146 -2.9035827302
H -2.6659810472 0.3430990555 -4.2042843637
H 1.7817340196 -0.8518465028 -2.4092895080
H 1.4050406545 -0.9841175180 -4.8679218075
H -1.6826679132 -1.5308376565 -2.3214593286
C -0.8143624244 0.1524942882 -6.1830513786
C 0.1579523004 0.0971813221 -7.1050826290
H -1.8127997648 0.4599939756 -6.4866455676
H 1.1811013528 -0.1934551224 -6.8842578663
H -0.0486484069 0.3463867677 -8.1407732057
C -5.5096217595 0.1516303934 0.9706319034
C -6.7097411687 -0.0523372637 0.4079179033
H -5.4375030060 0.3592115649 2.0362198706
H -6.8402427494 -0.2400505093 -0.6550925503
H -7.6149143361 -0.0258800748 1.0054033444
