94
# extracted from Terachem optimization
Mn -0.1358806707 0.0863218842 0.0320984433
O -0.0039159003 2.1125362046 -0.0357271170
C 1.2238125321 2.7437612728 0.4493380963
C 1.0279362440 4.1900658532 0.0952144502
C -0.0730316589 4.3696082967 -0.6428979323
C -0.7751563490 3.0565827649 -0.8588163073
H -1.7988624526 3.0651836755 -0.4823374648
H -0.7586200430 2.7053918608 -1.8968075958
H 1.7132541432 4.9619516235 0.4262472820
H 1.2736603377 2.5506572066 1.5266616867
O 2.2940540947 0.6555188789 -0.0607815007
C 2.4356630158 2.0767519888 -0.2251620951
S 3.9589401010 2.7185815920 0.5698758671
C 5.1880658458 1.6619965813 -0.3081382534
C 4.6328419307 0.3033153697 -0.6314852501
C 3.3770539862 -0.1164431524 -0.4702818739
H 5.9865345517 1.5213400321 0.4322094511
H 3.0700495050 -1.1440393430 -0.6236064623
H 5.3576936600 -0.4370952259 -0.9558064467
H 2.4563350543 2.2911515615 -1.2996831065
C 5.7934332466 2.4337795716 -1.5032765569
C 7.0249335911 1.7421120494 -2.0888951291
O 7.4522954940 0.6804011488 -1.7104818257
H 5.0720794993 2.5786429981 -2.3190706788
H 6.1159248422 3.4382114023 -1.1963289050
H 7.5265585129 2.2991630281 -2.9071787911
C -0.5974655925 5.6628306517 -1.1937673130
C -2.0780705198 5.9296960755 -0.9106155875
O -2.8598305811 5.0850564773 -0.5351320231
H -0.0065216044 6.5112153743 -0.8299819835
H -0.5014342245 5.6875142129 -2.2928747736
H -2.4054197686 6.9686656802 -1.1046839043
O 0.1327118376 -1.8612359009 0.1922314289
C 0.7270516968 -2.3299176750 1.4474360977
C 0.3199741896 -3.7746274895 1.5048352131
C -0.3689637679 -4.1406249853 0.4193189620
C -0.5125838783 -2.9841194450 -0.5299820309
H 0.0213729958 -3.1127922369 -1.4707545172
H -1.5540739094 -2.7222352534 -0.7219652292
H 0.5880872744 -4.4088065024 2.3424417387
H 1.8135493267 -2.1897464091 1.3672775874
O 0.1152170594 -0.0756103842 2.0795502015
C 0.1983545792 -1.4505573121 2.5884724642
S 1.3312184630 -1.5572835770 4.0026236643
C 0.4520963670 -0.3800821412 5.1252652331
C -0.2242124871 0.7212586011 4.3552238635
C -0.3315090550 0.8618041487 3.0355338827
H 1.2668524172 0.0842984377 5.6953932352
H -0.7805441490 1.7185930519 2.5490302804
H -0.6318032253 1.5270258110 4.9597074467
H -0.8216600105 -1.7285258997 2.8714915159
C -0.4552201879 -1.1218665194 6.1293377275
C -0.9447810923 -0.2270244953 7.2648850423
O -0.7055385190 0.9546234428 7.3388301841
H -1.3352361417 -1.5693067290 5.6470972070
H 0.0916919012 -1.9534246600 6.5940686885
H -1.5409259502 -0.7381260232 8.0475992589
C -0.9934497415 -5.4819646890 0.1374226921
C -1.3235013091 -5.7565818642 -1.3179661119
O -1.3262472166 -4.9079581645 -2.1887474411
H -0.3844506092 -6.3005583174 0.5396032626
H -1.9621220781 -5.5450717974 0.6613366895
H -1.6096818047 -6.8009618449 -1.5412968799
O -2.3522286074 0.0218211425 -0.1877489158
C -2.8646127548 0.1636556824 -1.5467698877
C -4.1549399606 -0.6080183254 -1.5307818615
C -4.3859117735 -1.1390469499 -0.3289257378
C -3.3037428901 -0.7276775079 0.6315492916
H -3.6690204133 -0.0643843383 1.4252121199
H -2.7868296638 -1.5830144059 1.0765021661
H -4.7780011026 -0.7074175654 -2.4123525782
H -2.9944531273 1.2351247659 -1.7434827824
O -0.5020660110 -0.0078267557 -2.1411425072
C -1.8441833266 -0.4273675586 -2.5337082023
S -2.2263107073 0.0995563711 -4.2311229232
C -0.9144064523 -0.9114857062 -5.0518593269
C 0.3550203429 -0.8916122719 -4.2429533837
C 0.5167174226 -0.4588640772 -2.9920859992
H -0.7154734083 -0.3714663299 -5.9856883581
H 1.4842691201 -0.3935352221 -2.5088624774
H 1.2503741395 -1.2207128355 -4.7624188811
H -1.8487671551 -1.5188014417 -2.4859194551
C -1.4322555081 -2.3194757082 -5.4211407782
C -0.4781383337 -3.0787075122 -6.3373068249
O 0.6145290418 -2.6774184319 -6.6595036799
H -1.6056466803 -2.9522955744 -4.5384744471
H -2.3948065412 -2.2494574077 -5.9452863856
H -0.8573153612 -4.0531875541 -6.7065960995
C -5.4999981645 -2.0534592985 0.0832737112
C -5.0145216825 -3.4555739267 0.4295236567
O -3.8446117045 -3.7871831128 0.4279852042
H -6.0452028061 -1.6708101140 0.9610279443
H -6.2568360831 -2.1407358996 -0.7073172503
H -5.8115585925 -4.1758486042 0.6922996599
