97
# extracted from Terachem optimization
Mn 0.2296720475 0.2262629259 -0.0624110009
O 0.3867593243 2.1852353374 0.2626453141
C 1.7741028711 2.6999492368 0.2530574672
S 1.6830330085 4.4493249320 -0.3124401928
C -0.0345928197 4.4683252143 0.1512576086
C -0.5395475590 3.2554824261 0.3873938194
H -1.5433695318 2.9358674276 0.6216844171
H 2.1492574621 2.6195050270 1.2780897818
O 2.1764088541 0.4026614626 -0.3618049519
C 2.5709511788 1.8193302991 -0.6961591919
N 3.9678422990 1.9405754658 -0.4876156634
C 4.7936125582 1.1249297236 -1.4016712043
C 4.2832773372 -0.2822820545 -1.3245086963
C 3.0806649439 -0.5785687633 -0.8466429199
H 5.8165450297 1.1631332777 -1.0229749758
H 4.2923338567 2.8973146083 -0.3761562100
H 2.6469960523 -1.5666810395 -0.7828677646
H 4.9000693912 -1.0913798207 -1.7023552914
H 2.2384626310 1.9471898154 -1.7333102858
C 4.6902512277 1.6419932075 -2.8714876420
O 3.6100439705 1.4943811884 -3.4416723319
C 5.8080220010 2.3287494993 -3.5265315615
C 7.0340024168 2.5167576444 -3.0112314286
H 5.5710416444 2.6855026516 -4.5260758019
H 7.8006525781 3.0303567093 -3.5839032531
H 7.3366699999 2.1762736579 -2.0247068062
C -0.6951191063 5.8163476042 -0.0036097276
O -0.0687621304 6.6298114235 -0.6614702953
C -2.0184552026 6.1068693401 0.5791397543
C -2.5226574075 5.5224482237 1.6737933035
H -2.5279463083 6.9407361441 0.1025287548
H -3.4708751761 5.8454451830 2.0922884033
H -1.9889975311 4.7511055870 2.2230764810
O 0.2953646940 -1.9290159710 0.1346223921
C 0.9628411882 -2.3133733874 1.3846044763
S 1.0100873437 -4.1428788599 1.4457883358
C -0.2574769854 -4.1886884469 0.2028311363
C -0.4979321120 -2.9901453201 -0.3436010599
H -1.1854630061 -2.7157238428 -1.1275592170
H 1.9664193941 -1.8876139409 1.3596882436
O 0.2145775484 -0.2518609570 2.2779981725
C 0.1718258384 -1.6803344754 2.5419988935
N 0.7864693335 -1.9663464185 3.8014626467
C 0.1917350422 -1.3110123420 4.9536849449
C -0.0402648168 0.1362508322 4.6341783729
C -0.0051713307 0.5773058348 3.3793479428
H 0.8919370272 -1.4113552684 5.7861132701
H 0.9521788776 -2.9618328598 3.9384736210
H -0.1189681812 1.6090847626 3.0741112704
H -0.2328295636 0.8341400599 5.4410466875
H -0.8855469900 -1.9843058059 2.5108563992
C -1.2032986730 -1.9657276103 5.3597624607
O -1.9841108404 -2.2219134403 4.4570195260
C -1.5300186254 -2.2152943494 6.7695756699
C -0.7182219461 -2.0011863847 7.8173411525
H -2.5316201925 -2.6119055625 6.9159484835
H -1.0591261376 -2.2188209032 8.8257071816
H 0.2945614861 -1.6162631982 7.7391856425
C -0.8608241613 -5.5568824351 -0.0021886240
O -0.5562882871 -6.3917699567 0.8341567378
C -1.7654852675 -5.8564642101 -1.1287427887
C -1.7375426513 -5.2697976709 -2.3324832129
H -2.4147166660 -6.7076868677 -0.9386681120
H -2.3911024470 -5.6106655746 -3.1293338858
H -1.0405210608 -4.4791044989 -2.5946013264
O -1.9018734535 0.2366233161 -0.2267118231
C -2.3925769548 0.7530029529 -1.5107519815
S -4.2156597395 0.5503870255 -1.5248599192
C -4.0722222142 -0.6057117945 -0.1817458089
C -2.8422463545 -0.6452848446 0.3414132117
H -2.4662437005 -1.2241982161 1.1696262612
H -2.1036247227 1.8036047171 -1.5674278756
O -0.2684564630 0.2050553337 -2.4243964681
C -1.6858417448 -0.0330416088 -2.6296539549
N -2.0895722021 0.4338448463 -3.9195125325
C -1.3866861291 -0.1342243450 -5.0463969398
C 0.0849993717 -0.1315732241 -4.7747650469
C 0.5575565165 0.0536272442 -3.5426159271
H -1.6246753691 0.4669199459 -5.9271852733
H -3.1008072628 0.4739214271 -4.0310289848
H 1.6044849661 0.1656534762 -3.2876255611
H 0.7807770037 -0.2505893326 -5.5971176880
H -1.8555168001 -1.1143960812 -2.5118149519
C -1.8373926965 -1.6522851874 -5.3339110964
O -2.0019231269 -2.3785023855 -4.3701078149
C -2.0001902948 -2.1244783528 -6.7150259877
C -1.8856271086 -1.3770241142 -7.8241201606
H -2.2406486114 -3.1827980820 -6.7797918790
H -2.0273211522 -1.8287047718 -8.8021245795
H -1.6568244642 -0.3151008147 -7.8283113982
C -5.3152153682 -1.4037826155 0.1306565163
O -6.1851475771 -1.3958423732 -0.7235858243
C -5.4415625252 -2.1638082108 1.3904993697
C -4.8718054698 -1.8369878015 2.5580450804
H -6.1518420602 -2.9846571569 1.3263166593
H -5.0746068934 -2.4095181764 3.4574493818
H -4.2337872483 -0.9664519370 2.6814759943
