118
# extracted from Terachem optimization
Co 0.0718654766 0.2207544961 0.0526266193
N 0.3547926337 2.3538557522 -0.2713279996
C 1.6562892083 2.7098695463 -0.2958902880
C 2.0653765138 3.9485279931 -0.7922446014
C 1.1162759768 4.8691819827 -1.2534751141
C -0.2306427678 4.4906546231 -1.1897568525
C -0.5603394964 3.2293630200 -0.7064155830
H 3.1204584833 4.1937319456 -0.8639182581
H -1.5918131209 2.8903934574 -0.6756572410
H -1.0128790833 5.1559847037 -1.5359354457
N 2.1461176467 0.4542875841 0.3383976690
C 2.6039563958 1.6686593322 0.2191294495
N 3.8718832511 2.0494360014 0.5102880018
C 4.8856303448 1.1181256308 1.0420554224
C 4.5094924851 -0.2920724134 0.5785538333
C 3.0390576046 -0.5711727381 0.8898437910
H 4.8533973104 1.1437391031 2.1385455185
H 4.6816010282 -0.3831667926 -0.5019961706
H 5.1508925731 -1.0140404490 1.0869465633
H 4.0675398250 3.0380372422 0.5838031824
H 2.8860245096 -0.6221943172 1.9777337994
H 2.7275972502 -1.5386814764 0.4859693106
C 6.2856247259 1.5600350592 0.6042645063
C 7.3943902773 0.8358353186 1.3826128188
O 7.1137064504 0.0275293551 2.2473965822
C 8.8199908458 1.1889559939 1.0254487178
H 6.4193320675 2.6403932468 0.7688422353
H 6.4302144395 1.4024281910 -0.4732647561
H 9.0133500466 0.9887609949 -0.0357420906
H 9.0040268090 2.2586334839 1.1863255656
H 9.5088936602 0.6060975306 1.6389615934
C 1.5228769124 6.1826994459 -1.8582387458
C 1.1738511071 6.2836360323 -3.3672009691
O 0.3949669665 5.5092170141 -3.8813542922
C 1.8462193871 7.4073032709 -4.1200578425
H 0.9959566571 7.0122434157 -1.3646005424
H 2.5915723663 6.3770187465 -1.7142412865
H 1.7373813100 8.3591897340 -3.5866912281
H 2.9227407894 7.2093735337 -4.2031004355
H 1.4191430001 7.4900403950 -5.1208090458
N -0.1998796735 -1.9368422283 0.6247528381
C -0.7023318189 -2.0926923321 1.8647631583
C -1.3613941647 -3.2591019142 2.2531100306
C -1.4747892838 -4.3304073000 1.3565562004
C -0.8764821318 -4.1808374556 0.0993307565
C -0.2760124091 -2.9682500019 -0.2253225291
H -1.8283004698 -3.3265492491 3.2311121091
H 0.1482660951 -2.8003454790 -1.2100459685
H -0.9135424874 -4.9782768616 -0.6320038645
N -0.2966523352 0.2431509879 2.1759790024
C -0.5210979064 -0.9037899413 2.7548617652
N -0.6081689149 -1.0998916949 4.0922353659
C -0.4211483467 -0.0204280529 5.0794842495
C -0.7642696057 1.3026647109 4.3902542049
C -0.0473252164 1.4032210500 3.0424129754
H 0.6327350437 0.0061215474 5.3834815144
H -1.8497284777 1.3648026976 4.2357867230
H -0.4690717446 2.1256983647 5.0437961642
H -0.5697925853 -2.0511776193 4.4320432920
H 1.0373517598 1.4989017316 3.1958280587
H -0.3684470129 2.2988848380 2.5040830929
C -1.2667030035 -0.3053444317 6.3249947327
C -0.8992411871 0.5977054774 7.5109736564
O 0.0134459288 1.3971117408 7.4241633553
C -1.7202334464 0.4308251792 8.7697351014
H -1.1268882567 -1.3467866900 6.6538910117
H -2.3377530021 -0.2054077570 6.1024259244
H -2.7606700517 0.7273212965 8.5842173462
H -1.7399828816 -0.6173229195 9.0916423168
H -1.3060378809 1.0528804777 9.5649156094
C -2.2544709969 -5.5655364266 1.7133988459
C -3.4416244569 -5.8496625055 0.7602452708
O -3.4365088109 -5.4597533046 -0.3905497190
C -4.5843852660 -6.6344868008 1.3560320186
H -1.6098243584 -6.4559434172 1.6560910780
H -2.6149463728 -5.5190466866 2.7461197016
H -4.2405632018 -7.3837089228 2.0764212496
H -5.2349714556 -5.9284994480 1.8900342314
H -5.1658248041 -7.1103364317 0.5639227650
N -2.1064813949 -0.0038982620 -0.5177855187
C -2.2753763905 -0.5041998836 -1.7571755293
C -3.4469120303 -1.1606360526 -2.1343325195
C -4.5093326156 -1.2735217314 -1.2272380352
C -4.3467195544 -0.6764868468 0.0291508436
C -3.1299874479 -0.0790592179 0.3424388675
H -3.5246644935 -1.6263007450 -3.1120887094
H -2.9495661766 0.3422463609 1.3261587545
H -5.1369219367 -0.7136745012 0.7682540456
N 0.0559909816 -0.1019657402 -2.0855327654
C -1.0930742389 -0.3279453768 -2.6564708499
N -1.2967357542 -0.4259850127 -3.9924921493
C -0.2206535170 -0.2479589762 -4.9854181104
C 1.1041516902 -0.5907676333 -4.2988575091
C 1.2125564245 0.1388620056 -2.9587228756
H -0.1921729246 0.8038091305 -5.2963458314
H 1.1628690302 -1.6750712563 -4.1349154315
H 1.9248997085 -0.3040700717 -4.9589454671
H -2.2490738826 -0.3790881573 -4.3281147180
H 1.3072499884 1.2217132761 -3.1237129437
H 2.1070456453 -0.1769013461 -2.4157490674
C -0.5152741104 -1.1032185097 -6.2221997259
C 0.3863469587 -0.7586083166 -7.4152316304
O 1.2042519031 0.1387961540 -7.3402394503
C 0.1959511655 -1.5839229640 -8.6682291920
H -1.5567358175 -0.9587222756 -6.5489713435
H -0.4234252585 -2.1727936473 -5.9887620052
H 0.4675892478 -2.6300964667 -8.4770459870
H -0.8532770860 -1.5801728487 -8.9872441727
H 0.8253278879 -1.1897343339 -9.4678039712
C -5.7479272400 -2.0533206693 -1.5714077905
C -6.0214325388 -3.2410078763 -0.6154075163
O -5.6203274965 -3.2350942434 0.5315388979
C -6.8107864964 -4.3846164604 -1.2033088269
H -6.6380841130 -1.4092694652 -1.5041037136
H -5.7123884790 -2.4132579205 -2.6047404436
H -7.5630220805 -4.0424709819 -1.9212876977
H -6.1080545120 -5.0383187931 -1.7377929593
H -7.2834385617 -4.9627277263 -0.4068280591
