151
# extracted from Terachem optimization
Co -0.4386693251 -0.3130441912 -0.1438824201
O -0.2849285967 1.9270774271 -0.1917409430
C 1.0275315397 2.4354853848 -0.6581545583
N 1.3590856625 3.5632900936 0.1439946080
C 0.0622701614 4.2273771367 0.3530334360
C -0.9250412968 3.0337693094 0.5147266512
H -1.0502066674 2.7551098690 1.5644038861
H -1.9013663467 3.2149905363 0.0639023297
H -0.1795645547 4.7465030443 -0.5843947743
H 1.7368002789 3.2637427088 1.0441394939
H 0.8833468282 2.7451229680 -1.7013781121
N 1.6669699513 0.0381076588 -0.4231737697
C 1.9874083390 1.2960348680 -0.5626898528
O 3.3032224022 1.5015783120 -0.6528361510
C 3.8987369893 0.2516812264 -0.5460715154
C 2.8788165334 -0.6480486675 -0.4071958807
H 2.9400678265 -1.7170753202 -0.2865727775
C 5.3535581634 0.1569820016 -0.5510517116
C 6.1026460982 1.2694139377 -0.4182674156
C 5.9348618065 -1.2074147015 -0.6495852123
C 5.5389292956 -2.1129858737 -1.6492154525
C 6.1303648779 -3.3644695565 -1.7658351523
C 7.1442994481 -3.7667199890 -0.8737382267
N 7.6927809281 -5.0364468026 -0.9481878215
C 7.5396503723 -2.8648318527 0.1333201918
C 6.9466174982 -1.6143101305 0.2370767866
H 7.1851797204 1.2090847596 -0.4401030291
H 5.6631221791 2.2530817480 -0.2911797503
H 4.7825550320 -1.8211833717 -2.3736909095
H 5.8160033677 -4.0383574209 -2.5590086183
H 7.6554336970 -5.4935451993 -1.8500043182
H 8.5815687020 -5.1714324319 -0.4832654924
H 8.3148321538 -3.1549576533 0.8378877518
H 7.2648415787 -0.9392644581 1.0265506044
C 0.0411524891 5.2128137437 1.5075749182
C 1.1754971033 5.5820272335 2.1210056350
C -1.2917198801 5.7385179823 1.8996295388
C -1.6012884341 5.9962480893 3.2485230714
C -2.8242177364 6.5370614287 3.6214274838
C -3.8025564388 6.8459079233 2.6580280160
N -5.0506494405 7.3309880413 3.0380161525
C -3.5055376900 6.5879421795 1.3079282217
C -2.2787713427 6.0436224663 0.9443552973
H 1.1635904086 6.3112603217 2.9240860461
H 2.1514598253 5.2189667234 1.8166787479
H -0.8749502958 5.7593150792 4.0210613466
H -3.0327767112 6.7230638858 4.6723837612
H -5.0761122873 7.8192156273 3.9254260228
H -5.5586273517 7.8374456108 2.3223896961
H -4.2344428144 6.8369744890 0.5402625989
H -2.0768891702 5.9021425074 -0.1147565475
O -0.4241207145 -2.4957305939 0.0744442348
C -0.5574071546 -2.9872388177 1.4624436551
N 0.4408170016 -3.9854342727 1.6570446725
C 0.4874617034 -4.6792309679 0.3561657425
C 0.2906647744 -3.5262284557 -0.6704260440
H 1.2465984811 -3.1163272545 -1.0065145246
H -0.3111001830 -3.8027034972 -1.5365597486
H -0.3958604792 -5.3313613300 0.3165475674
H 1.3476935351 -3.5556190850 1.8459949163
H -1.5558926771 -3.4368175266 1.5394176606
N -0.4239508638 -0.5448538135 1.9505214618
C -0.4454307097 -1.7899542159 2.3506596295
O -0.3931344034 -1.9174281785 3.6777332259
C -0.3183268440 -0.6265478414 4.1886198134
C -0.3362276202 0.2138091406 3.1117142870
H -0.2860351450 1.2891152765 3.0974772279
C -0.2010727960 -0.4188898057 5.6260109517
C 0.0700326388 -1.4511539644 6.4476519966
C -0.3322462716 0.9892772716 6.0876423252
C -1.4409206599 1.7799839752 5.7365998958
C -1.5647116134 3.0887836546 6.1836133471
C -0.5715224720 3.6651112370 6.9995334828
N -0.6567696249 4.9972763941 7.3808557994
C 0.5373240825 2.8759098746 7.3586152412
C 0.6491728060 1.5658389727 6.9104307510
H 0.1445825189 -1.2962214513 7.5184858387
H 0.2198584302 -2.4611960525 6.0802958784
H -2.2381453840 1.3566157755 5.1305297549
H -2.4366301212 3.6750364343 5.9041048043
H -1.5914307940 5.3809104916 7.4433908992
H -0.0821082963 5.2706005544 8.1685631974
H 1.3169040995 3.2994421747 7.9867915056
H 1.5200585882 0.9802878314 7.1917479941
C 1.7432339268 -5.5012744788 0.1295891217
C 2.5928944136 -5.7514840780 1.1377652728
C 1.9540966276 -6.0048309219 -1.2509532996
C 3.2493534024 -6.1320592097 -1.7878807098
C 3.4620499225 -6.6418068415 -3.0608809953
C 2.3811858551 -7.0496637900 -3.8681880814
N 2.5888500850 -7.5050582209 -5.1591027212
C 1.0817613480 -6.9200439963 -3.3433165259
C 0.8806676792 -6.4087730372 -2.0670416559
H 3.4731181738 -6.3672476358 0.9868518598
H 2.4177787534 -5.4029146379 2.1500372279
H 4.1051879265 -5.8125543416 -1.1996970619
H 4.4753962020 -6.7255334019 -3.4468227504
H 3.5022987486 -7.8913591028 -5.3603004105
H 1.8413260415 -8.0484773530 -5.5715367967
H 0.2289144233 -7.2393212420 -3.9371011825
H -0.1383514271 -6.3704411497 -1.6893876142
O -2.6070568570 -0.3527530360 -0.2830970096
C -3.1719098223 -0.6155895578 -1.6246977748
N -4.1809369531 0.3629479922 -1.8548236233
C -4.8168952663 0.5158705574 -0.5328792388
C -3.6245753745 0.3833099300 0.4610676054
H -3.2162349425 1.3595069337 0.7295200677
H -3.8649229868 -0.1777394013 1.3649612529
H -5.4793533741 -0.3499687895 -0.3999203133
H -3.7595256736 1.2507682241 -2.1320558437
H -3.6232094485 -1.6152437843 -1.5841718779
N -0.7609300583 -0.5076290757 -2.2399987252
C -2.0212376781 -0.5835372200 -2.5765912910
O -2.2126591292 -0.6635515768 -3.8934932239
C -0.9483365099 -0.6209976737 -4.4725200891
C -0.0568067497 -0.5282076916 -3.4400945752
H 1.0186818564 -0.4723698209 -3.4768069525
C -0.8391814748 -0.6282866459 -5.9263315369
C -1.9420933616 -0.4644372875 -6.6840901290
C 0.5263513086 -0.7558444591 -6.4982830639
C 1.4129326165 -1.7715334628 -6.0988860494
C 2.6642969425 -1.9103141327 -6.6858150397
C 3.0858462451 -1.0266100201 -7.6997731561
N 4.3510442507 -1.1242567849 -8.2478746452
C 2.2026671844 -0.0035228559 -8.0983556997
C 0.9529436145 0.1226659474 -7.5094661821
H -1.8730962442 -0.4849648216 -7.7661093894
H -2.9254811224 -0.3105418644 -6.2526510472
H 1.1052751265 -2.4930267295 -5.3457051208
H 3.3221579515 -2.7174218080 -6.3728611332
H 4.8142006050 -2.0206429811 -8.1793932227
H 4.4986468709 -0.6709222336 -9.1400167833
H 2.5082015485 0.6962830121 -8.8719167401
H 0.2937619916 0.9246667777 -7.8297150432
C -5.6033493340 1.8017499985 -0.3597368595
C -5.8790501554 2.5945030351 -1.4064548108
C -6.0250164457 2.1206327249 1.0274677906
C -5.9758653549 3.4404211455 1.5131201313
C -6.3999253364 3.7649101339 2.7938373148
C -6.9035359824 2.7701202005 3.6553402570
N -7.2835408418 3.0799587519 4.9521128116
C -6.9481196340 1.4440294234 3.1842547615
C -6.5143426900 1.1320556138 1.9015882137
H -6.4672108056 3.4971990664 -1.2781361203
H -5.5867387511 2.3491580338 -2.4223770733
H -5.5740688810 4.2257095870 0.8790740986
H -6.3296842713 4.7949568357 3.1362238796
H -7.5537946315 4.0409788400 5.1184200876
H -7.9062950027 2.4230703669 5.4051904934
H -7.3420202633 0.6597837596 3.8262332694
H -6.6055120353 0.1014413458 1.5658218995
