136
# extracted from Terachem optimization
Co 0.2845768655 0.1706696024 0.0601166180
O 0.5402549854 2.3415293528 0.0615297129
C 1.9145971073 2.7360065139 -0.1870083125
N 2.1215347424 3.9391569775 0.6071078632
C 0.9597547004 4.1178306168 1.3970460871
C 0.0315105757 3.2254704156 1.0583147298
H -1.0097170469 3.1138717385 1.2972603786
H 2.9883702558 4.0165748763 1.1363410350
H 2.0052002574 2.9362468942 -1.2643427730
N 2.3935091309 0.3796684275 0.2784728465
C 2.8467926739 1.5800069419 0.1593689522
O 4.1048262035 1.9648039685 0.3247203232
C 5.1889712677 0.9494240799 0.2825159262
C 4.6361118956 -0.3772747427 0.7065468889
C 3.3230601146 -0.6176569733 0.6725714936
H 5.9314843243 1.3192004432 0.9897863842
H 2.8811035674 -1.5615413026 0.9711160631
H 5.3313077351 -1.1333371134 1.0491654156
C 5.8010602119 1.0319770772 -1.1494232966
N 4.8023358344 0.5722342108 -2.1160582522
O 6.1372669259 2.3756071043 -1.4181946513
C 7.1516232525 0.2650796053 -1.2694978709
N 8.0427728923 0.6929424295 -0.1946005431
N 6.9347071602 -1.1810911890 -1.2425504081
H 5.1054513408 0.8975989322 -3.0349080357
H 4.8544127554 -0.4490599674 -2.1377642120
H 5.3440965222 2.9201622570 -1.2807822676
H 7.5089144235 0.5237487965 -2.2803641724
H 8.9686606215 0.2882836781 -0.3280296142
H 8.1586273552 1.7055757558 -0.2319884908
H 7.5568751007 -1.6479440097 -1.8976571145
H 7.1721746565 -1.5329756234 -0.3159318955
C 0.9597360973 5.2969005347 2.3578335713
N 2.2947585665 5.3461059115 2.9609179789
O 0.7238802151 6.4954056027 1.6389415602
C -0.1645702236 5.2237478185 3.4230530791
N -1.4858393279 5.1833026105 2.7677019954
N 0.0747988102 4.0861326475 4.2957720206
H 2.4556260367 6.3019316407 3.2779897037
H 2.2851603273 4.7507871318 3.7918869467
H 1.3663186253 6.5383322352 0.9094433903
H -0.0295624049 6.1308360568 4.0305056548
H -2.1976732439 5.4192546503 3.4592235719
H -1.5154025562 5.9227016568 2.0633197584
H -0.4872216559 4.1476381854 5.1419788582
H -0.2220215517 3.2330275490 3.8257391431
O -0.3380725070 -1.9646270053 0.2164999203
C -1.0700262285 -2.2123355568 1.4380022424
N -0.6785710611 -3.5521042179 1.8597738082
C 0.3510868723 -3.9781218421 0.9832504904
C 0.5166907073 -3.0890528906 0.0056025830
H 1.0503819422 -3.1036030568 -0.9280777925
H -0.4592801801 -3.6957462905 2.8440951280
H -2.1408654359 -2.1483863906 1.2032222379
N 0.0166273398 -0.1299066675 2.1515958441
C -0.7213805708 -1.1410827380 2.4665730188
O -1.1794379757 -1.4313444892 3.6741162526
C -1.1335837716 -0.4061252830 4.7515312274
C 0.0009402834 0.5293336062 4.4711350615
C 0.4835245057 0.6606491001 3.2317814655
H -0.9764015858 -0.9851391638 5.6620218184
H 1.2930370055 1.3355512292 2.9858426092
H 0.4195186646 1.1049474511 5.2875160273
C -2.5551996837 0.2394608966 4.8280689125
N -2.7404257415 1.1140914440 3.6746043285
O -3.5271295843 -0.7833461938 4.8107812357
C -2.7967724852 0.9546721404 6.1944962383
N -2.5224184391 0.0135893280 7.2759146157
N -1.9811075177 2.1654127765 6.3245764333
H -3.7376258299 1.2846677328 3.5337589260
H -2.3177860341 2.0196487541 3.8852552407
H -3.3448227300 -1.3625883947 4.0524870664
H -3.8480019929 1.2817370799 6.1349388318
H -2.7957168037 0.4156221413 8.1715651885
H -3.0844549456 -0.8269681484 7.1446411317
H -2.4806206696 2.8538248360 6.8844472715
H -1.1433641887 1.9283908517 6.8576952098
C 0.9374579036 -5.3499905885 1.2694309032
N 1.1479561027 -5.4152917402 2.7178771760
O 0.0080968993 -6.3488930134 0.8842740643
C 2.2294648970 -5.6701958754 0.4713809978
N 1.9663449009 -5.5730383582 -0.9661489323
N 3.3110646300 -4.7821000124 0.8920835099
H 1.2091040499 -6.3991618245 2.9799096933
H 2.0562465889 -4.9913274136 2.9191826374
H -0.8365545609 -6.1556015787 1.3270000929
H 2.4975047686 -6.6868115790 0.7989853116
H 2.7347936101 -6.0010604558 -1.4818698697
H 1.1308881169 -6.1176671119 -1.1818859239
H 4.2072531412 -5.2602237323 0.8350637074
H 3.3523773415 -3.9956176435 0.2456279213
O -1.8725782563 0.2460862189 -0.2008498570
C -2.2566258012 -0.0201675634 -1.5764789552
N -3.2908318437 0.9478068511 -1.9039088401
C -3.6243534696 1.6001337825 -0.6800816169
C -2.8376333972 1.1715046382 0.3048631701
H -2.8234068128 1.2916155131 1.3777816166
H -3.1024232930 1.6040388599 -2.6606540777
H -2.6553772223 -1.0462035630 -1.5964788745
N 0.1577673290 0.0575834219 -2.0179689702
C -1.0448286953 0.0158282693 -2.4865200257
O -1.3835897590 0.0184343204 -3.7652636717
C -0.3830079536 -0.3749133872 -4.7904546046
C 0.9900513598 -0.0798262705 -4.2708357860
C 1.2124903934 0.1084087350 -2.9677787627
H -0.6276782879 0.2445197160 -5.6534169919
H 2.1921429212 0.3200943517 -2.5521816365
H 1.8006023529 -0.0187035366 -4.9861544671
C -0.7066152579 -1.8600671186 -5.1459744614
N -0.4401492912 -2.6828707363 -3.9702035642
O -2.0740156728 -1.9446467976 -5.4884972068
C 0.0388902848 -2.3492261809 -6.4222069506
N -0.1834778962 -1.3890743470 -7.5007047689
N 1.4641004143 -2.5359928617 -6.1542463807
H -0.9328044620 -3.5673225081 -4.0959211405
H 0.5587340472 -2.9004334020 -3.9691483977
H -2.5917236563 -1.5687160253 -4.7568053304
H -0.3915895573 -3.3468095714 -6.6106340915
H 0.1885744358 -1.7547908846 -8.3763313154
H -1.1862960881 -1.2640243817 -7.6388891103
H 1.8173974507 -3.3510482254 -6.6492833383
H 1.9754436363 -1.7320723275 -6.5162042491
C -4.8075151791 2.5493309595 -0.7610205113
N -4.5523324972 3.4076418803 -1.9210160115
O -5.9841197938 1.7892425031 -0.9885478889
C -5.1055057924 3.3707900603 0.5235610351
N -5.2897224565 2.4701013076 1.6742829475
N -4.0751019090 4.3737390299 0.7420814348
H -5.4500089978 3.7678501807 -2.2452804272
H -4.0049202294 4.2079546688 -1.5961808944
H -5.8097482055 1.2080255816 -1.7497363107
H -6.0273286875 3.9136739640 0.2656689152
H -5.7776868388 2.9794997132 2.4114184744
H -5.9205141639 1.7194335358 1.3880270742
H -4.4668273350 5.2008882534 1.1843298506
H -3.3407086224 4.0235007707 1.3555614684
