145
# extracted from Terachem optimization
Co 0.2274557289 0.2484830389 0.1997804045
N 0.4925256304 2.1781174662 0.2522938219
C 1.6988064302 2.5987946519 0.0859778922
O 1.9184193299 3.8960778560 0.0543332541
C 0.6012287928 4.5620370534 0.2566312922
C -0.3825457264 3.3636268915 0.3606276579
H -0.9175726054 3.3542335460 1.3149614649
H -1.1141348338 3.3562352513 -0.4511648203
H 0.4360616148 5.1440014237 -0.6514886696
O 2.2629730245 0.3350201373 -0.0663011128
C 2.8435033463 1.6520301238 -0.0824298144
S 4.0806997628 1.9090427745 1.2399159647
C 5.2046256320 0.4987318965 0.7670072671
C 4.3785393427 -0.7901529334 0.6096674115
C 3.2319929039 -0.7116641406 -0.3920843577
H 5.8264688656 0.3913777226 1.6616762760
H 3.3121705191 1.8111774052 -1.0620870478
H 2.6448624801 -1.6291431882 -0.3837801070
H 3.5807243964 -0.5186212320 -1.4141376667
H 5.0486075749 -1.5894309325 0.2680118620
H 3.9768431720 -1.0931592656 1.5814030296
C 6.1323609720 0.8514039036 -0.4201184773
C 7.2420972255 -0.1672616596 -0.5982855005
C 8.3396349691 -0.1704714814 0.2748496961
C 9.3625489935 -1.1071906726 0.1462200060
C 9.2927874584 -2.0589337675 -0.8734594267
Cl 10.5699586333 -3.2393335565 -1.0442322575
C 8.2179573024 -2.0723703229 -1.7624532906
C 7.2016396618 -1.1274804482 -1.6170145458
H 5.5565041951 0.9381811046 -1.3504085314
H 6.5603843080 1.8415213812 -0.2300003283
H 8.4104357972 0.5800817311 1.0592606349
H 10.2118198571 -1.0958109506 0.8208053401
H 8.1846124502 -2.8054778133 -2.5612178945
H 6.3764173021 -1.1307370860 -2.3267695150
C 0.6861406168 5.4724409786 1.4811346631
C -0.6205254203 6.2069915342 1.7140605048
C -1.0314890219 7.2290468301 0.8459091100
C -2.2388137332 7.8971478276 1.0392533173
C -3.0505191804 7.5445615876 2.1198721706
Cl -4.5657056994 8.3754990076 2.3722390594
C -2.6578175668 6.5414252977 3.0068535050
C -1.4482334410 5.8782474023 2.7953313802
H 1.5096306529 6.1790573879 1.3256214253
H 0.9443232507 4.8660111695 2.3577538486
H -0.3949813520 7.5268795846 0.0156234299
H -2.5443249029 8.6927374497 0.3683987372
H -3.2826809234 6.2992543507 3.8599327064
H -1.1322181335 5.1166874346 3.5052592222
N 0.0742029885 -1.7061727908 0.2910605087
C 0.0547824794 -2.3315884548 1.4202184778
O -0.1680321519 -3.6337417523 1.4018831871
C -0.2964865758 -4.0429370005 -0.0187565354
C -0.1906857638 -2.6922126984 -0.7756839408
H 0.6239310999 -2.6918809148 -1.5058658390
H -1.1101922364 -2.4285421499 -1.3057536201
H -1.2906921728 -4.4853207230 -0.1026431101
O 0.2560921562 -0.2841892330 2.5616837285
C 0.2724199736 -1.6854602300 2.7579837241
S 1.8609960158 -2.3273064862 3.4520705389
C 1.9476067589 -1.2050547895 4.9390260501
C 1.7046958780 0.2488623430 4.4997505990
C 0.3761671479 0.4784028654 3.7919305902
H 2.9971678523 -1.2991004235 5.2363327296
H -0.5467123360 -1.9781455781 3.4292746021
H 0.2791861756 1.5168318648 3.4715257213
H -0.4831400487 0.2300008941 4.4282911643
H 1.7288901219 0.8919548487 5.3880369049
H 2.5126392465 0.5705978792 3.8343559586
C 1.0667394594 -1.7113723289 6.1061123063
C 1.2979351066 -0.9312358490 7.3863611016
C 2.4708675876 -1.1238857752 8.1308234045
C 2.7101954903 -0.4046722307 9.2996740736
C 1.7623921594 0.5228552526 9.7371984114
Cl 2.0539642874 1.4312669545 11.2025532522
C 0.5822133415 0.7266614608 9.0223875289
C 0.3606049583 -0.0012610255 7.8530294613
H 0.0055096734 -1.6655807268 5.8329161069
H 1.2974315934 -2.7706808074 6.2631405565
H 3.2044208772 -1.8590484196 7.8070010453
H 3.6156890120 -0.5666399188 9.8743527289
H -0.1550123159 1.4358094329 9.3830860772
H -0.5717274164 0.1465749608 7.3114662144
C 0.7831491931 -5.0782341384 -0.3411820339
C 0.6812017670 -5.5532764148 -1.7774431466
C -0.3693917512 -6.3899337812 -2.1823158386
C -0.4867526419 -6.8096295359 -3.5057064850
C 0.4608643548 -6.3909987227 -4.4429521268
Cl 0.3206731150 -6.9086478799 -6.1057044267
C 1.5234293354 -5.5708811677 -4.0633087158
C 1.6238986136 -5.1570595720 -2.7347315802
H 0.6711975299 -5.9136150669 0.3592269433
H 1.7685900498 -4.6337222589 -0.1545972936
H -1.0994564789 -6.7381082770 -1.4549065976
H -1.2966318097 -7.4644138210 -3.8087251192
H 2.2680037528 -5.2749859619 -4.7946267493
H 2.4712456392 -4.5421926083 -2.4376945394
N -1.7082931723 0.4149095253 0.1287047330
C -2.3676712761 0.4696293765 -0.9771858423
O -3.6873190175 0.5112507816 -0.9041009466
C -4.0561814002 0.4928349386 0.5334432684
C -2.6767352561 0.4324100455 1.2421974460
H -2.4981122022 1.3047574033 1.8777368452
H -2.5489279348 -0.4615308197 1.8569669064
H -4.6256965876 -0.4283391540 0.6715528187
O -0.3650405447 0.3011354457 -2.2234237402
C -1.7594165221 0.4987868931 -2.3510413587
S -2.2057014349 2.1101481179 -3.1395883038
C -1.2077073144 1.8831016214 -4.6991105905
C 0.2234118921 1.4480100112 -4.3399210861
C 0.3131767543 0.1783908468 -3.4988890241
H -1.1597476581 2.9020656082 -5.0966961638
H -2.2002347355 -0.3143341586 -2.9449069019
H 1.3504055883 -0.0376668435 -3.2344079973
H -0.0973309664 -0.6933200920 -4.0254567007
H 0.7811695010 1.2752181707 -5.2678295253
H 0.7218127984 2.2639490924 -3.8044650051
C -1.9459943746 0.9943291903 -5.7301224122
C -1.1938163578 0.8693653761 -7.0412755872
C -1.0927812435 1.9618302180 -7.9154109005
C -0.3860532422 1.8653722508 -9.1122484081
C 0.2292490276 0.6573772199 -9.4477701144
Cl 1.1202326510 0.5271494163 -10.9461370765
C 0.1337496655 -0.4487105776 -8.6034744532
C -0.5752461454 -0.3325752728 -7.4077216404
H -2.1248111816 -0.0061005732 -5.3176419555
H -2.9347360461 1.4351241968 -5.8990784785
H -1.5852051406 2.9011188906 -7.6728673652
H -0.3197527870 2.7130166779 -9.7857938011
H 0.5988118109 -1.3876335556 -8.8842320191
H -0.6638140526 -1.2054895124 -6.7636017703
C -4.9183270332 1.7148136236 0.8500121680
C -5.3340153587 1.7277615997 2.3086323328
C -6.2744699611 0.8062104856 2.7922699697
C -6.6404532984 0.7883210163 4.1364836224
C -6.0616654037 1.7072328523 5.0147712301
Cl -6.5092293006 1.6904018458 6.7035992466
C -5.1359409276 2.6444772657 4.5558731181
C -4.7773487155 2.6466996457 3.2073793613
H -5.7943336049 1.6955084895 0.1914722697
H -4.3523763932 2.6217520730 0.6057409213
H -6.7483354484 0.1019874302 2.1117818105
H -7.3761052214 0.0790169665 4.5001654628
H -4.7145382822 3.3694414107 5.2441776880
H -4.0759466038 3.3975697140 2.8487438139
