109
# extracted from Terachem optimization
Co 0.2210399048 0.0949116199 -0.0684618994
N 0.5291920035 2.0333776610 0.1162011485
C 1.7938115310 2.4003570545 0.0440383527
S 2.0403363227 4.0840340448 0.3106712747
C 0.3091590602 4.3072390088 0.5244477093
C -0.3104482683 3.0931569096 0.3876588305
H -1.3751763182 2.9403392902 0.4718828401
O 2.2353537781 0.1244251541 0.1815982662
C 2.8510879394 1.3654792236 -0.2462836007
C 4.1747915597 1.6170160213 0.4267309559
C 4.8146950842 0.7045005227 1.1752167078
C 4.2206043629 -0.6799468802 1.3460316177
C 3.1861962687 -0.9796190953 0.2768264173
H 4.6280370200 2.5846588736 0.2249953422
H 2.9913807376 1.3118926647 -1.3410215805
H 2.5770081963 -1.8487784155 0.5158890895
H 3.6483579488 -1.1164927784 -0.7084316680
H 5.0107361746 -1.4375322219 1.3175930456
H 3.7692913447 -0.7655935302 2.3439388111
C 6.1192017672 1.0201721165 1.8154893840
C 6.2934543739 2.1439141598 2.5250449928
C 7.2569009551 0.0259966723 1.6337451130
O 7.0447603969 -1.1932475463 2.3462420148
H 7.2575940659 2.3933388550 2.9606911739
H 5.4840436007 2.8461764649 2.7046519084
H 7.3475624917 -0.2675261598 0.5826187547
H 8.2027223064 0.5000268460 1.9252199385
H 7.1599035306 -1.0081850695 3.2922990862
C -0.2925359946 5.6046178279 0.8659835484
C 0.2707061865 6.7739750577 0.5259843746
C -1.5813560470 5.5535174298 1.6731056920
O -2.6380800717 4.8576426464 1.0073663680
H -0.1805830079 7.7179210331 0.8163106864
H 1.1917149734 6.8413837365 -0.0475540214
H -1.4173211013 5.0000027053 2.6030684384
H -1.8840578380 6.5735993526 1.9383945292
H -2.9432776712 5.4121787454 0.2707956678
N 0.0106989359 -1.8835211694 -0.0738937808
C -0.3336898936 -2.5235960501 1.0263697553
S -0.5181100971 -4.2269857700 0.7941135317
C -0.1204148664 -4.0495866294 -0.9095430587
C 0.1349060089 -2.7266358293 -1.1571976534
H 0.3882146561 -2.3179209744 -2.1206812721
O 0.0469308250 -0.5254314181 2.1791334032
C -0.5958609234 -1.7946448288 2.3270381061
C -0.1366616133 -2.5421652624 3.5569267793
C 0.5900463801 -1.9720481604 4.5322183989
C 0.9649700313 -0.5040963222 4.4366100926
C 0.0949513208 0.2201075003 3.4223505357
H -0.4816547531 -3.5686704701 3.6551221224
H -1.6882363895 -1.6281353104 2.3904695945
H 0.4964900736 1.1977198561 3.1498440679
H -0.9304462039 0.3514643733 3.7937751094
H 0.8839200908 -0.0287753892 5.4192107067
H 2.0244672481 -0.4193454277 4.1556334685
C 1.0096604399 -2.7542003137 5.7261971551
C 1.5992784270 -3.9517631203 5.6040749147
C 0.7385483512 -2.1561133545 7.0995382197
O 1.5398897258 -1.0072590137 7.3754844538
H 1.8705861967 -4.5396765199 6.4772281157
H 1.8375766847 -4.3829726682 4.6355687424
H -0.2965304786 -1.8045822854 7.1658939586
H 0.8728401098 -2.9310057007 7.8652705993
H 2.4528120315 -1.3088795273 7.5100652311
C -0.0648357982 -5.1634549812 -1.8625995562
C -0.5075753931 -6.3971973624 -1.5741627399
C 0.5490653172 -4.8459179393 -3.2181846401
O -0.1236978660 -3.7876902081 -3.9064236822
H -0.4414571379 -7.1995798162 -2.3024413037
H -0.9442051222 -6.6624446011 -0.6144671566
H 1.5799389717 -4.4981776370 -3.0912920558
H 0.5814981379 -5.7576750547 -3.8260384138
H -0.9635064673 -4.1404226511 -4.2422102041
N -1.7021633079 0.3332402654 -0.3489029783
C -2.2387141100 0.2784060625 -1.5503597704
S -3.9344680198 0.6245862832 -1.5445962593
C -3.9009219798 0.8463786641 0.1979412340
C -2.6180605526 0.6482340202 0.6333019858
H -2.3019768509 0.7110557698 1.6627735757
O -0.0711960762 0.0912658092 -2.4386010078
C -1.4492126504 -0.0904979603 -2.7888186571
C -1.8560871980 0.6946612574 -4.0151440682
C -0.9765901120 1.3112178670 -4.8209328578
C 0.5088087421 1.2039731483 -4.5338621216
C 0.7983084133 0.0406089360 -3.5995405651
H -2.9155527525 0.6875028405 -4.2601482141
H -1.6147286474 -1.1682120472 -2.9774641947
H 1.8167670813 0.0744966124 -3.2046537928
H 0.6515596451 -0.9231684157 -4.1055144296
H 1.0680105876 1.0862131101 -5.4674601647
H 0.8647477968 2.1463118667 -4.0937361111
C -1.4366432426 2.0678437112 -6.0156100496
C -2.4242469498 2.9702866438 -5.9312432732
C -0.7564726804 1.7817062096 -7.3468614793
O 0.5899294470 2.2538268284 -7.3954908304
H -2.7878570261 3.4951785004 -6.8110193258
H -2.8970372123 3.2218197884 -4.9857561733
H -0.6882510217 0.7024374636 -7.5197635725
H -1.3591115396 2.2071774608 -8.1598066305
H 0.5622662592 3.2237172227 -7.4296562406
C -5.0690962349 1.2496510521 0.9912599762
C -6.3300310750 1.0631121242 0.5720724116
C -4.7626964710 1.9333459567 2.3167861590
O -3.9916190773 1.1127413572 3.2003551102
H -7.1732040148 1.3937700230 1.1708740308
H -6.5745455697 0.5807117591 -0.3711019123
H -4.1559085265 2.8279869175 2.1411166138
H -5.7015612906 2.2481102781 2.7879490930
H -4.5774429945 0.4176065823 3.5413236758
