151
# extracted from Terachem optimization
Co 0.4327128426 -0.0449158729 -0.0283623016
O 0.8473531031 2.2189599341 -0.0237977049
C 2.2411395008 2.5204559061 -0.1245698077
S 2.5202366319 3.9926214409 0.9414593525
C 0.9420193172 4.6493219470 0.2226897420
C 0.0338059245 3.4038685606 0.1785910478
H -0.4999087310 3.2813474066 1.1253582424
H -0.6871570106 3.4675837834 -0.6424248982
H 1.1701024944 4.9613036149 -0.8015636282
H 2.4673723099 2.8067142824 -1.1625180140
N 2.5172916346 0.1465256998 0.2589818189
C 3.0894026974 1.3161590317 0.2321185302
C 4.5054650829 1.5328652343 0.4386980170
C 5.3915188936 0.4953975604 0.3672352875
C 4.8008021807 -0.8834649398 0.1579830677
C 3.3782627597 -0.9631863253 0.7080985338
H 4.8246655245 -1.1050497127 -0.9208720146
H 5.4024230347 -1.6622177399 0.6333155913
H 4.8511848532 2.5525103209 0.5641720471
H 3.4067614058 -0.9331508984 1.8075687935
H 2.9035809626 -1.9053169414 0.4272558315
C 6.8460969364 0.6932542405 0.3755948686
C 7.4082483948 1.9197034378 -0.0466216677
C 8.7808730821 2.1085662963 -0.0616920961
C 9.6422253720 1.0880887557 0.3688056151
C 11.1244871445 1.3516168839 0.2748705489
O 11.5419677370 2.1633027329 -0.5459160606
N 11.9413335016 0.6382288117 1.0926000253
C 9.1032232827 -0.1352615691 0.7846230524
C 7.7253337365 -0.3322428348 0.7811134716
H 6.7661601539 2.7138004620 -0.4132873360
H 9.2129952297 3.0358618751 -0.4217809014
H 11.5961390194 0.1904303528 1.9295927183
H 12.9297118562 0.8591106397 1.0615973000
H 9.7551836464 -0.9503093608 1.0835714522
H 7.3401008587 -1.2870473403 1.1223032947
C 0.3388410232 5.8194005880 0.9679633585
C -0.1759824981 6.8947077421 0.2299159501
C -0.7996335803 7.9615065383 0.8703788375
C -0.8826525135 7.9908856131 2.2674329408
C -1.5958473637 9.1537964765 2.9041672675
O -2.5277575081 9.6975237532 2.3172238824
N -1.1899265675 9.5250707163 4.1485960348
C -0.3626626271 6.9243532779 3.0119845365
C 0.2359140342 5.8437271099 2.3667186785
H -0.0931108408 6.8978854556 -0.8540775061
H -1.2202055221 8.7834615910 0.3008736663
H -0.2631916661 9.2949320149 4.4795485566
H -1.6211873285 10.3544996098 4.5401493022
H -0.4456991480 6.9236193149 4.0948570094
H 0.6367566463 5.0251788491 2.9586883402
O -0.1271715327 -2.1728282375 0.1424963128
C -0.6274181997 -2.5242171805 1.4457959241
S 0.1681347009 -4.1164386879 1.9069698971
C -0.0212541009 -4.6071126908 0.1303295731
C 0.3655964523 -3.3178929483 -0.6077004035
H 1.4521080576 -3.2313242670 -0.6918256687
H -0.0834918874 -3.2755871195 -1.6038173395
H -1.0837362051 -4.8134075863 -0.0353564031
H -1.7109166936 -2.6806237996 1.3607236367
N 0.0944145234 -0.2844193178 2.0144766597
C -0.3577293150 -1.4233643666 2.4533985448
C -0.6632550372 -1.6959112160 3.8399543943
C -0.7802822082 -0.6770984863 4.7435052013
C -0.4992656418 0.7202712475 4.2290807000
C 0.4694491621 0.6958883394 3.0476309556
H -1.4617129088 1.1755038698 3.9463799408
H -0.0833957196 1.3653839167 5.0069628201
H -0.8691800106 -2.7216117920 4.1245826202
H 1.4758657924 0.4280042832 3.4021890439
H 0.5475326240 1.6770726554 2.5757423187
C -1.2593884568 -0.8865891218 6.1148802845
C -2.0830236670 -1.9916947593 6.4295635043
C -2.5532628857 -2.1892083928 7.7181131623
C -2.1960853848 -1.3044873656 8.7465617810
C -2.7816138429 -1.5564470898 10.1132318716
O -3.8530020226 -2.1461676065 10.2146398073
N -2.0982773498 -1.0741428738 11.1839728767
C -1.3872271191 -0.2003838245 8.4518556300
C -0.9320191945 0.0097572586 7.1534888221
H -2.3992893517 -2.6748025282 5.6481195763
H -3.2149301904 -3.0173371384 7.9485629343
H -1.1152052086 -0.8491494824 11.1270971774
H -2.4681767195 -1.2943898518 12.1013222355
H -1.1316583755 0.5166284614 9.2261151013
H -0.2953239511 0.8674188526 6.9645448028
C 0.7851279774 -5.8176753985 -0.2856332930
C 0.1739960608 -6.7875956963 -1.0929666547
C 0.8969426070 -7.8823082539 -1.5568422295
C 2.2374969529 -8.0462848179 -1.1870990665
C 2.9769418032 -9.2289922838 -1.7519373660
O 2.6696266199 -9.6629193933 -2.8598950550
N 3.9965131290 -9.7438370055 -1.0156269431
C 2.8526536729 -7.0863386609 -0.3730808750
C 2.1331535991 -5.9776538339 0.0690904765
H -0.8728206021 -6.6851395767 -1.3673468327
H 0.4340528179 -8.6207281772 -2.2027265418
H 4.0402074156 -9.5964116166 -0.0166440587
H 4.4406849255 -10.5816745570 -1.3737294221
H 3.8995766144 -7.1886228495 -0.1030594004
H 2.6215253658 -5.2434798957 0.7044923485
O -1.8386437192 0.0405030259 -0.3893793277
C -2.1685972844 -0.0335670401 -1.7824596472
S -3.4071941661 1.2903837109 -2.1168071222
C -4.1188931449 0.8855562572 -0.4559653764
C -2.8566766224 0.7109971104 0.3990199169
H -2.4704580700 1.6847714277 0.7137997385
H -3.0519620319 0.0931697207 1.2799584826
H -4.6257851563 -0.0802911032 -0.5534234829
H -2.6416755029 -1.0064441989 -1.9727828614
N 0.2289202042 0.1562251879 -2.0999434681
C -0.9422196720 0.1004167567 -2.6616196488
C -1.1587472622 0.1157416411 -4.0939297740
C -0.1328550406 -0.1327695073 -4.9604995618
C 1.2363614821 -0.3315367847 -4.3429015985
C 1.3546126077 0.4152205385 -3.0161345530
H 1.3996233345 -1.4127898893 -4.2104755330
H 2.0368316292 0.0096711444 -5.0036655445
H -2.1739976003 0.2481491673 -4.4510316837
H 1.3732718786 1.4980456275 -3.2128971139
H 2.2809996480 0.1578289122 -2.4992487764
C -0.3358837254 -0.3096002201 -6.4046092446
C -1.5919167378 -0.7118230100 -6.9132549908
C -1.7882445373 -0.8934774681 -8.2730654097
C -0.7421932477 -0.6564995818 -9.1775782625
C -1.0115831403 -0.9177335820 -10.6371793159
O -1.8625565998 -1.7445217259 -10.9567956978
N -0.2625170704 -0.2426558789 -11.5446088319
C 0.5119645043 -0.2683568440 -8.6916197249
C 0.7132067680 -0.1025937836 -7.3245635279
H -2.4090467401 -0.9315386397 -6.2342670754
H -2.7432922053 -1.2353642377 -8.6570253107
H 0.2321286973 0.6038518525 -11.3015834508
H -0.4791396152 -0.3880328390 -12.5237862013
H 1.3444273349 -0.1211606534 -9.3728486276
H 1.6937092895 0.2123050210 -6.9844482839
C -5.0948740908 1.8994115566 0.0989777360
C -6.2405055980 1.4303879180 0.7575591126
C -7.1282523525 2.3185908245 1.3562714029
C -6.9051327775 3.6986513558 1.2711417450
C -7.8752339876 4.6052061815 1.9782524394
O -8.4270502504 4.2133942196 3.0054411524
N -8.0677317011 5.8473508633 1.4676691783
C -5.7692943525 4.1763490762 0.6049367003
C -4.8681216988 3.2822442070 0.0286396067
H -6.4387894114 0.3628229927 0.8086350209
H -8.0013649025 1.9571574592 1.8888208575
H -7.8499541605 6.0546891188 0.5027256505
H -8.7674174054 6.4277857845 1.9158009899
H -5.5713984252 5.2431369860 0.5558566634
H -3.9931385714 3.6675593952 -0.4878174947
