133
# extracted from Terachem optimization
Co 0.5236591090 0.2630543347 0.3304908060
N 0.7270560621 2.2053491477 0.1783795870
C 1.9046651927 2.6669374823 0.5636223516
S 2.0427564710 4.3865686295 0.4963839604
C 0.3976529708 4.4786706205 -0.0971343038
C -0.1307861128 3.2232051060 -0.2018332897
H -1.1363726697 3.0015341724 -0.5255023000
O 2.5225926381 0.3879054394 0.8111992008
C 2.8958685213 1.7406442302 1.2179928503
S 4.6651050644 2.1727058248 1.1027161862
C 5.2209831460 1.2905384319 -0.4321957773
C 4.5224933814 -0.0242768578 -0.5541859992
C 3.3752423140 -0.3910318927 0.0036146794
H 6.2641645414 1.0673234974 -0.1873713392
H 2.9561668014 -1.3853344599 -0.0700302293
H 5.0356902764 -0.7762287707 -1.1430037630
H 2.6956803860 1.7573634068 2.2949610639
C 5.2581735148 2.1778817688 -1.7167784786
N 3.9981800040 2.7181341734 -2.2008370897
C 5.9512574719 1.4169146778 -2.8968782969
N 6.5984363194 2.4172972414 -3.7279124707
O 6.9519361637 0.5264461562 -2.4306620571
N 4.9605360412 0.5413613796 -3.5393518460
H 5.9038967600 3.0283572244 -1.4751430461
H 3.2848781740 1.9961863801 -2.2757937222
H 3.6571871162 3.4678759133 -1.6084036268
H 6.8501512685 2.0203760763 -4.6325543211
H 5.9720801929 3.2032780554 -3.8952096682
H 7.7783186894 1.0397506707 -2.4352903216
H 4.3778262318 1.1042752160 -4.1556942144
H 5.4681570352 -0.1269509422 -4.1181998973
C -0.1312607948 5.8569978962 -0.4450732683
N 0.8157301338 6.8302501081 0.0906389648
C -1.6047646754 6.1100078278 0.0294184819
N -1.6336674890 6.0850882995 1.4796052798
O -2.0075572932 7.3974964559 -0.3946870387
N -2.4841362001 5.1315139353 -0.5903522112
H -0.1388375395 5.9539107985 -1.5376336006
H 0.8889071348 7.6615914202 -0.4881324379
H 0.5420376196 7.0971469839 1.0368232137
H -2.5210389121 6.4588522584 1.8124290069
H -1.5281854992 5.1372804078 1.8347149725
H -1.5012830617 8.0568753245 0.1105984227
H -3.4298352664 5.2871542313 -0.2378371690
H -2.5357378688 5.3317064002 -1.5915411405
N 0.4557128794 -1.6712073357 0.7573660975
C 0.6045273119 -2.0674557324 2.0129876167
S 0.6237206048 -3.7838165426 2.2049839260
C 0.3889121569 -3.9734505609 0.4808933809
C 0.3186432193 -2.7433325660 -0.1116624517
H 0.1807893801 -2.5614936697 -1.1670658583
O 0.4279968668 0.2074050288 2.6814273231
C 0.9126902712 -1.0800140861 3.1168097625
S 0.4831892437 -1.5801297875 4.8258971590
C -1.2697043429 -0.9899740089 5.0213454135
C -1.4704756299 0.2689724572 4.2346403795
C -0.7145307225 0.7552702909 3.2538520483
H -1.2873198800 -0.7379091103 6.0893064368
H -0.9123435872 1.7101289774 2.7809001427
H -2.3366230877 0.8615569297 4.5014784604
H 2.0008033892 -0.9647143765 3.1627266331
C -2.3441270893 -2.1130518612 4.8079632163
N -2.6292993816 -2.4876734839 3.4389872033
C -3.6742548375 -1.7707913649 5.5905174656
N -3.4105666190 -2.0401528770 7.0072914895
O -4.0231820953 -0.3782213188 5.5470469267
N -4.7800736394 -2.4382452785 4.9471469846
H -1.9300900465 -3.0031652176 5.2976454879
H -3.0598577802 -1.7261867404 2.9169796680
H -1.7978933821 -2.8198473792 2.9625559193
H -4.2632567399 -1.8898109090 7.5477384309
H -3.1345511743 -3.0092594757 7.1547148504
H -3.6348648880 0.0197180586 6.3451819059
H -4.5212581380 -3.3588808362 4.6070100990
H -5.5812913537 -2.4976277812 5.5711990974
C 0.2448861497 -5.3993414371 -0.0225274495
N 0.6814501297 -6.2749513612 1.0638930894
C 0.9787713653 -5.6844088605 -1.3791871584
N 2.4006971031 -5.4527256361 -1.1844362662
O 0.8017485711 -7.0489413036 -1.7116027416
N 0.3791798679 -4.8782329360 -2.4219438582
H -0.8203322322 -5.5878518438 -0.2031935259
H 0.1982689392 -7.1685204460 1.0477958407
H 1.6864316223 -6.4387643428 0.9894604668
H 2.9158061120 -5.8225048057 -1.9822443661
H 2.6007593505 -4.4575011447 -1.1126622849
H 1.3166784740 -7.5830747538 -1.0827850539
H 0.9525651292 -4.9041238357 -3.2659065752
H -0.5066480657 -5.2924416765 -2.7271566161
N -1.3094281895 0.2354973772 -0.3744627240
C -1.5640115437 0.4251970395 -1.6610156745
S -3.2561619328 0.4652617824 -2.0273712980
C -3.6252853486 0.1491031165 -0.3489079073
C -2.4659560139 0.0484614924 0.3661303037
H -2.4029129629 -0.1626770853 1.4225083632
O 0.7684788856 0.2727443278 -2.2388060094
C -0.4954713037 0.7837873846 -2.6760962391
S -0.9458886821 0.4814140512 -4.4319179882
C -0.3402609246 -1.2528659390 -4.7283958450
C 0.9329153493 -1.4612366702 -3.9656095739
C 1.3840439650 -0.7715658365 -2.9195886351
H -0.1037581264 -1.2084214180 -5.7989829685
H 2.3627952111 -0.9314510085 -2.4871279674
H 1.5839973569 -2.2494918095 -4.3231689023
H -0.3796265469 1.8733087925 -2.6466731607
C -1.4505597781 -2.3471283654 -4.5609159685
N -1.7972837384 -2.7178988386 -3.2037399856
C -1.1038382608 -3.6283753800 -5.4183357938
N -1.4112372309 -3.2982317951 -6.8124325724
O 0.2903922396 -3.9559913049 -5.4188964665
N -1.7405468463 -4.7836250072 -4.8210063139
H -2.3513206681 -1.9146429872 -5.0149087966
H -1.0437979593 -3.2406749198 -2.7588719296
H -2.0321203040 -1.9036476041 -2.6469242183
H -1.2520531112 -4.1166744997 -7.4009652031
H -2.3884464711 -3.0355571206 -6.9258881674
H 0.6686546397 -3.5036875797 -6.1921076447
H -2.6866222379 -4.5746322515 -4.5159308676
H -1.7470556160 -5.5628270719 -5.4761274744
C -5.0901265263 -0.0232366508 0.0106049432
N -5.8668728745 0.6193748096 -1.0473030454
C -5.4617034912 0.4587329736 1.4532529613
N -5.1654194408 1.8791790451 1.5640056067
O -6.8552629169 0.2933892008 1.6428953703
N -4.7668771977 -0.3682645267 2.4192218150
H -5.3158869117 -1.0965811909 -0.0189508298
H -6.7882099023 0.2006819314 -1.1410782009
H -5.9772249554 1.6124349159 -0.8387399810
H -5.5590657676 2.2303961720 2.4363856647
H -4.1599476588 2.0367205663 1.5857653099
H -7.3114213994 0.9525068791 1.0921427405
H -4.9031834166 -0.0050607957 3.3647880067
H -5.1996815987 -1.2935569804 2.4510906123
