103
# extracted from Terachem optimization
Co -0.2014163355 -0.2602271596 -0.2366019894
O -0.3560250942 2.0825769756 -0.2700373861
C 0.9157984496 2.6692869854 -0.4994879011
S 1.2276564272 4.0853438071 0.6311601823
C -0.1385296573 5.1431971350 -0.0569755656
C -1.3514816816 4.2932557791 -0.3289680814
C -1.4279819261 2.9628857186 -0.3902289546
H -0.3746182256 5.8031182921 0.7876945923
H -2.3473455196 2.4123258096 -0.5415372049
H -2.2856182772 4.8317639311 -0.4710909940
H 0.9233047495 3.0552499810 -1.5277357411
N 1.6626437229 0.3350514333 -0.2755004205
C 1.9902905896 1.6040931280 -0.3586522220
N 3.2566504896 2.0370027082 -0.3656254205
C 4.4671526337 1.1774276442 -0.4007750007
C 4.0157393369 -0.2372936267 -0.1457230144
C 2.7255979799 -0.5879939844 -0.1165206635
H 5.1221081288 1.5087262410 0.4178023480
H 3.4020790210 3.0414191019 -0.3687878924
H 2.4135163091 -1.6107454882 0.0565299398
H 4.7787481814 -0.9908776788 0.0135541564
C 5.2325481501 1.3671687150 -1.7279569035
C 6.5924168755 0.6607178002 -1.7480072779
H 5.3812429178 2.4452476346 -1.8808598205
H 4.6007099063 1.0140387483 -2.5532180800
H 6.4919785199 -0.4275743413 -1.6778535297
H 7.1197209877 0.8807681059 -2.6805038753
H 7.2284533065 0.9973738829 -0.9213173172
C 0.2900940221 6.0149492043 -1.2545929315
C 1.3354973534 7.0783506899 -0.9115032232
H 0.6463710250 5.3671737275 -2.0670986524
H -0.6168374849 6.5024067898 -1.6378938285
H 0.9667142425 7.7600238753 -0.1366821659
H 2.2682382823 6.6303100626 -0.5523918702
H 1.5725302057 7.6783481562 -1.7951347385
O -0.0789994587 -2.5570346265 0.1510923668
C 0.0437644414 -2.8699516296 1.5292264334
S 1.5577799898 -3.8495348018 1.8992425308
C 1.0624307239 -5.3216368720 0.8783318933
C 0.4430456714 -4.8585480023 -0.4131133055
C -0.0154713260 -3.6424128491 -0.7134374941
H 2.0316056175 -5.7769021733 0.6362173809
H -0.3926336241 -3.3662135997 -1.6894848554
H 0.3861585730 -5.6005880764 -1.2060548881
H -0.8235249837 -3.4828301638 1.8079424698
N -0.1189859596 -0.4147544608 1.7505910512
C 0.0338639614 -1.5830520018 2.3359030007
N 0.1632198185 -1.7383269848 3.6598953992
C -0.0060400754 -0.6719946305 4.6784537246
C -0.0064387729 0.6398545331 3.9400223853
C -0.0804261520 0.7162089960 2.6074115012
H 0.8641876714 -0.7216412330 5.3479636194
H 0.3455940040 -2.6765204628 4.0001698433
H -0.1041070786 1.6633906923 2.0883784924
H 0.0425687042 1.5515744831 4.5246486960
C -1.2747271772 -0.9259889104 5.5205009038
C -1.4262889061 0.0362355986 6.7034883348
H -1.2305930679 -1.9586176830 5.8942609428
H -2.1507523556 -0.8644052145 4.8612105493
H -1.5528657938 1.0734323991 6.3757443574
H -2.3066781885 -0.2296842437 7.2952968123
H -0.5564250258 -0.0064801379 7.3690878326
C 0.2145608739 -6.3586440072 1.6435005330
C 0.9636534164 -7.0527778924 2.7826465893
H -0.6998458263 -5.8776101321 2.0164251075
H -0.1169880733 -7.1061414139 0.9102637386
H 1.8435170294 -7.5889009541 2.4091610255
H 1.2992566641 -6.3381776147 3.5418321412
H 0.3163468381 -7.7838394745 3.2761920253
O -2.2372659097 -0.5498017428 -0.3692837091
C -2.7609760112 -0.7232131746 -1.6952441827
S -4.1070687874 0.4554802972 -2.0709482719
C -5.2726858955 -0.2009166112 -0.7793362350
C -4.5094356109 -0.4845673599 0.4863828165
C -3.1921285997 -0.6011462293 0.6520781100
H -5.9242894679 0.6611333974 -0.5873068549
H -2.7020582652 -0.7361363742 1.6053723581
H -5.1073715866 -0.5830401692 1.3895945392
H -3.1693860265 -1.7405147076 -1.7431114453
N -0.3947328738 -0.4312131468 -2.1985642086
C -1.6112225769 -0.5836516549 -2.6693822006
N -1.9105112532 -0.6785103482 -3.9688492392
C -0.9299365893 -0.6745087221 -5.0870464202
C 0.4363427387 -0.4846338293 -4.4796514633
C 0.6440042946 -0.3875471803 -3.1622998099
H -1.1750745315 0.1795388823 -5.7359140378
H -2.8906320755 -0.7585721795 -4.2183751333
H 1.6337720111 -0.2822505257 -2.7394306147
H 1.2810594842 -0.4423156806 -5.1580985747
C -1.0718272767 -1.9647164085 -5.9210880028
C -0.2675007595 -1.9383515632 -7.2258860725
H -2.1367186115 -2.0969181143 -6.1595907904
H -0.7760065201 -2.8203224002 -5.3008923465
H 0.8116047009 -1.8866629740 -7.0463830154
H -0.4578987086 -2.8477222107 -7.8025348220
H -0.5507467850 -1.0842626748 -7.8513865976
C -6.1464807323 -1.3761404074 -1.2633913187
C -7.1332252067 -0.9995928137 -2.3703642561
H -5.4998645598 -2.2050435451 -1.5817300761
H -6.6984256338 -1.7469708163 -0.3889684126
H -7.8178870928 -0.2115765781 -2.0373774934
H -6.6187883488 -0.6447224730 -3.2699670715
H -7.7380668997 -1.8662637265 -2.6527703395
