103
# extracted from Terachem optimization
Co -0.0603470572 -0.1018851473 -0.0548966640
O 0.0631632527 2.2396882709 -0.0807416981
C 1.3554948623 2.5127716328 -0.6128796762
O 1.7146959710 3.7856678070 -0.1694749582
C 0.5059905714 4.5524377425 0.0205871556
C -0.6286140189 3.5121872655 -0.1229450551
H -1.3339706288 3.5313772453 0.7065859142
H -1.1674670305 3.6055116639 -1.0703252696
H 0.4491984822 5.3203200526 -0.7566152109
H 1.3007416072 2.4891873639 -1.7182874372
N 1.8723043772 0.2812590942 0.1206534653
C 2.3333649017 1.4633504549 -0.1296454527
C 3.7964247305 1.7920843761 -0.0509039047
C 4.5130922265 0.9760771361 1.0384686862
C 4.0037343418 -0.4376000155 1.0139993913
C 2.7730719240 -0.7304329991 0.5730308198
H 4.2831802594 1.4118033107 2.0262774976
H 4.2345951882 1.5523870274 -1.0372453811
H 3.9406575136 2.8618287699 0.0964110278
H 2.3625425440 -1.7306124234 0.5978710779
H 4.6194334904 -1.2379116665 1.4148910357
C 6.0542103020 1.0938175079 0.8893096958
N 6.8501420487 0.4305418356 1.8887330298
O 6.2950568892 2.4857466689 0.9329481938
H 6.3469523318 0.6671129029 -0.0852303236
H 6.5120516264 0.5662722911 2.8379294139
H 7.0235162528 -0.5521585159 1.7080826412
H 7.2574781472 2.5941094369 1.0233447520
C 0.5689775035 5.2567961335 1.3782100266
N 1.7075417230 6.1183251736 1.4191814948
O 0.5196597826 4.2166943984 2.3773761519
H -0.3283130699 5.8866491236 1.4627892012
H 1.7035012562 6.7548141390 2.2106364062
H 2.5780466947 5.5935282087 1.4079790219
H 0.5272614565 4.6526252937 3.2443819246
O -0.1163586493 -2.3537125560 0.1555270627
C -0.5231548513 -2.6716982569 1.4885945529
O 0.3561310382 -3.6630833055 1.9281214211
C 0.5652782348 -4.5249613248 0.7952619751
C 0.4478619833 -3.5653370070 -0.4126752693
H 1.4194542221 -3.3192089189 -0.8413323938
H -0.2255553656 -3.9491359156 -1.1839908232
H -0.2220942476 -5.2873692714 0.7744165886
H -1.5628546788 -3.0474685901 1.4654293217
N -0.2084879406 -0.2951016438 1.9107865082
C -0.4255812466 -1.4702115147 2.4029047525
C -0.6507296100 -1.6999116076 3.8716863696
C 0.1729124079 -0.7338007920 4.7392826843
C 0.1401435333 0.6344132181 4.1180782104
C -0.0541670839 0.8092465681 2.8036854308
H 1.2207019912 -1.0781631708 4.7729828424
H -1.7262120095 -1.5312301110 4.0598484574
H -0.4466461953 -2.7377086102 4.1349441425
H -0.0205748609 1.7752233949 2.3175683392
H 0.3359474842 1.5040676242 4.7394697190
C -0.3223014732 -0.7635597143 6.2119921677
N 0.4302944242 0.0160500988 7.1588536828
O -0.2681432326 -2.1304476509 6.5638899735
H -1.3577903214 -0.3833187279 6.2389509077
H 1.4376321563 -0.0839330929 7.0640725541
H 0.1693588996 0.9949184035 7.2055174800
H -0.3992455235 -2.1711837465 7.5268719965
C 1.9124701052 -5.2356227991 0.9414981421
N 1.9008559235 -6.0392107272 2.1235397860
O 2.9183248667 -4.2066217781 0.8744074890
H 2.0202255327 -5.9113333195 0.0811487475
H 2.6821521704 -6.6864445294 2.1728665993
H 1.8793516469 -5.4701035744 2.9657817802
H 3.7842579326 -4.6447359932 0.8824574304
O -2.0575730276 -0.3288765640 -0.2504043970
C -2.4618126340 -0.5311839581 -1.6338749978
O -3.3841097460 0.4649352059 -1.9232152289
C -4.1403352711 0.6489770770 -0.7101851116
C -3.0423339675 0.5720062833 0.3568329136
H -2.5781093706 1.5426837700 0.5212945253
H -3.3728853932 0.1260304074 1.2959612585
H -4.8580559544 -0.1747593072 -0.6100223562
H -2.9139401851 -1.5354746041 -1.6919326429
N -0.1150119949 -0.2080583630 -2.0435483610
C -1.2802809599 -0.4246669674 -2.5584816990
C -1.5041719018 -0.6370433673 -4.0274645561
C -0.4973040922 0.1596682435 -4.8751462180
C 0.8637677253 0.0393992665 -4.2468738578
C 1.0046528862 -0.1462545081 -2.9267011939
H -0.7927669811 1.2225470763 -4.8827414753
H -1.3803823155 -1.7174201319 -4.2228453959
H -2.5308682503 -0.3883983308 -4.3011318408
H 1.9644787983 -0.2294726246 -2.4351631505
H 1.7502642264 0.1377141999 -4.8677345283
C -0.5433442177 -0.2933464692 -6.3616962825
N 0.2731718949 0.4488886180 -7.2813305661
O -1.9075346952 -0.1642862924 -6.7068585882
H -0.2131436915 -1.3445176617 -6.4181675925
H 0.2384081657 1.4563673502 -7.1535219655
H 1.2295482187 0.1244380813 -7.3685782710
H -1.9555706579 -0.2532511071 -7.6743759404
C -4.9265882965 1.9609423394 -0.7826224490
N -5.8023688428 1.9196093459 -1.9106026224
O -3.9533799351 3.0188090582 -0.7587893358
H -5.5523008491 2.0131862932 0.1199604325
H -6.5124344158 2.6454042341 -1.8942612992
H -5.2940332918 1.9567468964 -2.7900978299
H -4.4377575205 3.8577568115 -0.8241541055
