124
# extracted from Terachem optimization
Co -0.2948980461 -0.3118789898 -0.2918972658
O 0.3636936759 2.2522019159 -0.3661688648
C 1.7751951047 2.1985142373 -0.6743683744
N 2.2018791138 3.5480507239 -0.3621254188
C 1.1605624425 4.3360113910 -0.0750822607
C 0.0194137406 3.5292010939 -0.0714127395
H -1.0300562640 3.7214987361 0.1570129267
H 3.1428345041 3.9538314653 -0.3893546946
H 1.8638104977 2.0133777644 -1.7539930019
N 1.8438206948 -0.0985432796 0.0593514374
C 2.4576030074 1.0361667613 0.0648435139
S 4.0231128351 1.4591993107 0.7002819982
C 4.7620332252 -0.1917522512 1.1955664736
C 4.0361771029 -1.3058437172 0.4551610133
C 2.5210102212 -1.2743236272 0.6620753473
H 4.5880884058 -0.2691536278 2.2707774536
H 4.2725050750 -1.2734379442 -0.6148572698
H 4.4213072352 -2.2559386036 0.8369922307
H 2.2801214441 -1.2858332660 1.7331508413
H 2.0663687353 -2.1667188843 0.2281895910
C 6.3089072957 -0.0790314516 0.9724816011
N 6.8051875387 -0.0323807054 -0.3766947351
C 7.0200575206 -1.2396942299 1.7024911968
O 6.4898794293 -1.2940449652 3.0027438432
O 6.7797485023 -2.4289896161 0.9711322836
H 6.6337801529 0.8327411561 1.4895739059
H 6.6498490440 -0.8906014138 -0.8933988534
H 6.5421629532 0.7871170149 -0.9113075750
H 8.0944664262 -1.0195635182 1.7142124966
H 7.0435322906 -1.8706094978 3.5539436361
H 7.5592663795 -3.0046707771 1.0166811652
C 1.4046244213 5.8210896433 0.1362058438
N 2.8273409552 5.9898036442 0.4045407925
C 0.4504149977 6.4078383898 1.2037562920
O -0.9061471569 6.2463756762 0.8042131191
O 0.6830577483 5.6751879753 2.3629723233
H 1.1672705176 6.3090527602 -0.8185868250
H 3.0079386836 5.9608420317 1.4076392894
H 3.1834623828 6.8700164685 0.0409577605
H 0.6777185323 7.4756830201 1.3281533156
H -1.2275930851 7.0552731060 0.3705541405
H 0.2474298570 6.1092012743 3.1169015214
O -0.8552335204 -2.3775654447 -0.1575036815
C -1.5480955181 -2.6337069399 1.1035097532
N -1.3268237932 -4.0249320542 1.4185059517
C -0.3182411921 -4.4882715559 0.5085025177
C -0.0319384153 -3.5246409558 -0.3653553122
H 0.6126633135 -3.5055063408 -1.2270328537
H -2.1733158184 -4.5909503272 1.3830263859
H -2.6063329373 -2.3983585250 0.9603496496
N -0.5883266500 -0.4975603205 1.7759716903
C -0.9929946399 -1.6664498383 2.1694173624
S -1.1002356303 -2.3077180309 3.7765361643
C -0.7172298226 -0.8301786179 4.8544599622
C -0.9136716895 0.4694450779 4.0839363086
C -0.1441928623 0.5045265622 2.7627713074
H 0.3305979862 -0.9406118485 5.1427951953
H -1.9803748885 0.6442509428 3.8961338073
H -0.5686724945 1.2889874935 4.7210993835
H 0.9297746290 0.3579118991 2.9449367022
H -0.2584799904 1.4844190559 2.2917718916
C -1.5829832950 -0.9966898320 6.1491376069
N -3.0097034919 -0.8240982877 6.0319225329
C -1.0794770556 -0.0539574887 7.2605309979
O 0.3162735741 -0.1989241244 7.3280073854
O -1.4621021451 1.2730984962 6.9296290336
H -1.3945190300 -2.0116983156 6.5216038939
H -3.2716080445 0.1281618796 5.8002954254
H -3.4612487545 -1.4924113842 5.4173150556
H -1.5618349257 -0.3536305731 8.1987672897
H 0.6404302001 0.1955767266 8.1535107480
H -1.7120723577 1.7466114412 7.7381473771
C 0.2312614049 -5.8890550025 0.6844980268
N 1.1065167231 -6.0554416713 1.8366596267
C 0.9605884682 -6.3908082537 -0.5659190429
O 0.0713935198 -6.3188015683 -1.6517084563
O 2.1000989593 -5.5574635093 -0.7487133663
H -0.6275015097 -6.5583729159 0.8217652799
H 1.9286175528 -5.4645102761 1.7435560486
H 0.6335662926 -5.8332397564 2.7083931048
H 1.2798914021 -7.4218950762 -0.3748755854
H 0.3004224317 -7.0028399383 -2.3002743520
H 2.7685634301 -6.0474124333 -1.2532470670
O -2.4814830365 -0.0836928834 -0.5218140699
C -2.8908986081 0.2280227195 -1.8686310204
N -3.4427561066 1.5921554696 -1.7751942372
C -3.8412204596 1.7295503334 -0.4069711394
C -3.2605716363 0.7729269277 0.3128646380
H -3.2191628535 0.5644129535 1.3683231696
H -4.2117910602 1.7433708096 -2.4265837736
H -3.6585599854 -0.5034981857 -2.1662240901
N -0.5115287151 -0.0310128438 -2.3517496102
C -1.7040264820 0.1257695158 -2.8283644825
S -2.2214698923 0.2409884538 -4.4864093508
C -0.6482529401 -0.0391909410 -5.4554542875
C 0.3194502621 -0.8490795896 -4.6035317072
C 0.6385336716 -0.1699640913 -3.2713560853
H -0.2413706202 0.9519824785 -5.6670015497
H -0.0797408492 -1.8544006645 -4.4251013299
H 1.2461626695 -0.9676915525 -5.1725821317
H 1.0416344485 0.8355504427 -3.4625810836
H 1.4109633952 -0.7321629522 -2.7385496751
C -1.0705041313 -0.6803772330 -6.8213521105
N -1.5901318895 -2.0234104729 -6.8085393655
C 0.1134881546 -0.6382924196 -7.8114240291
O 0.6368562944 0.6661994034 -7.7793473031
O 1.0645918145 -1.6072985337 -7.4015306902
H -1.8358302260 -0.0216499782 -7.2509262677
H -0.8988375767 -2.7124047366 -6.5331580178
H -2.4557249686 -2.1394596490 -6.2935657554
H -0.2718049973 -0.8929771571 -8.8059896181
H 1.2153530706 0.7993856784 -8.5474003322
H 1.4862647480 -1.9995484487 -8.1820178170
C -4.6934581215 2.9009592110 0.0396282722
N -5.9035396578 3.1365721899 -0.7197090674
C -3.8677368549 4.2062616491 0.0233782032
O -2.7739326113 4.0323738420 0.9182443232
O -3.4384521332 4.5613794419 -1.2680083009
H -4.9680131788 2.7171655240 1.0836135558
H -5.7467352865 3.5381123924 -1.6383809197
H -6.5437305055 2.3513136327 -0.7574787215
H -4.5144405946 5.0223399289 0.3557452045
H -2.4080873509 4.9150088383 1.1207973363
H -3.0305479682 3.7756601801 -1.6793872381
