133
# extracted from Terachem optimization
Co 0.4677551675 0.1970300879 0.2815795028
N 0.9005088885 2.2404140702 0.1692622593
C 2.0875908050 2.6170556540 0.6085921578
S 2.3975555679 4.3054036352 0.4802048828
C 0.8319598744 4.5163724815 -0.2742143856
C 0.1920003136 3.3127988050 -0.3508900441
H -0.7986885827 3.1784396377 -0.7605211986
O 2.6273860633 0.3069550507 0.8683382469
C 2.9910961425 1.6440468136 1.3243893361
S 4.7708712716 2.0157405948 1.3349920927
C 5.3109494130 1.2318408604 -0.2587538341
C 4.7111859105 -0.1430881650 -0.3263585463
C 3.5365820174 -0.5010156442 0.1872483969
H 6.3900068328 1.1271856164 -0.1108727938
H 3.1595041606 -1.5173781874 0.1705268389
H 5.2903190110 -0.9322365650 -0.7945457368
H 2.7143318540 1.6491726411 2.3847681245
C 5.0780969934 2.1089976373 -1.5171957955
N 3.6722184710 2.0665023498 -1.9097692382
C 6.0215371951 1.7173447111 -2.7106829159
N 7.4043057767 1.6415025852 -2.2494540337
O 5.6677395681 0.4296033950 -3.2025240857
N 5.7150585321 2.6327891456 -3.8049254985
H 5.3177381793 3.1435864402 -1.2397254776
H 3.5687114317 2.7162587280 -2.6906307249
H 3.5042999107 1.1480716882 -2.3236383764
H 8.0354897247 1.5758828287 -3.0487662951
H 7.6739881278 2.4759137926 -1.7298781420
H 6.3367656560 -0.1765337984 -2.8443794424
H 6.2026655661 3.5184778273 -3.6853221801
H 6.0150699743 2.2185012960 -4.6854253683
C 0.4880995729 5.9023051237 -0.7837951899
N 1.3686245698 6.8529865855 -0.1103445291
C -1.0275789885 6.2805221319 -0.6764761771
N -1.3998489427 6.3403980549 0.7243508014
O -1.2124789431 7.5688926128 -1.2337103994
N -1.8163161475 5.3353224848 -1.4532620062
H 0.7311410516 5.9318553456 -1.8538421025
H 1.5367919947 7.6772082180 -0.6803965192
H 0.9480623757 7.1446083676 0.7728891590
H -2.3240390845 6.7593309599 0.8168237616
H -1.4269119581 5.4100796749 1.1358272206
H -0.8164481355 8.2170080148 -0.6261118342
H -2.7981034320 5.6063070774 -1.3752809985
H -1.5841872793 5.4587526341 -2.4411684098
N 0.3715951140 -1.8495533138 0.7866252540
C 0.5651954859 -2.1763077828 2.0553818188
S 0.5640702058 -3.8769217577 2.3554217864
C 0.2373638450 -4.1626313149 0.6595497039
C 0.1612497785 -2.9687792502 -0.0013950091
H -0.0462546179 -2.8617345735 -1.0553607544
O 0.4111865843 0.1405587887 2.5755514065
C 0.9033340929 -1.1229712364 3.0866617147
S 0.4860964763 -1.5058768419 4.8260372051
C -1.2674951255 -0.9044103450 4.9810439379
C -1.4342804199 0.3484325335 4.1786645317
C -0.6858813763 0.7695395811 3.1628382583
H -1.3012173491 -0.6484581375 6.0473841414
H -0.8429254289 1.7204908727 2.6674093329
H -2.2586691392 0.9944691866 4.4561989195
H 1.9914367263 -1.0048141139 3.1082687293
C -2.3587600021 -2.0107144018 4.7527160510
N -2.6955557442 -2.3254919318 3.3803922955
C -3.6615318267 -1.6688723435 5.5734622528
N -3.3482478158 -1.8993213752 6.9864427767
O -4.0242321220 -0.2824250850 5.4988753499
N -4.7824964248 -2.3652890735 4.9853597051
H -1.9442738010 -2.9218667498 5.2037930440
H -3.2490071428 -1.5871581046 2.9460909430
H -1.8699953643 -2.5151394174 2.8225949593
H -4.1855741715 -1.7495018710 7.5504544369
H -3.0525819658 -2.8605461396 7.1470812456
H -3.6275564611 0.1414884464 6.2790970926
H -4.5347451951 -3.3041984625 4.6887692555
H -5.5679997542 -2.3947397724 5.6315649339
C 0.0375360536 -5.6044048415 0.2333370252
N 0.6459794058 -6.4443444452 1.2629461550
C 0.5380157479 -5.9188221666 -1.2172379591
N 1.9708844862 -5.6780832575 -1.2800374414
O 0.3187313372 -7.2927068330 -1.4837216156
N -0.2336300249 -5.1394474641 -2.1647089709
H -1.0408867002 -5.8073019205 0.2334762283
H 0.1999888520 -7.3561332440 1.3140408086
H 1.6372213468 -6.5749399704 1.0561677085
H 2.3321910033 -6.0542339368 -2.1558475520
H 2.1716385516 -4.6804286194 -1.2611476624
H 0.9462444901 -7.8047652104 -0.9450471029
H 0.1564427105 -5.2283409932 -3.1049202914
H -1.1727743088 -5.5331241625 -2.2465797297
N -1.5571424120 0.2619484314 -0.3645715660
C -1.8142765758 0.4448021417 -1.6466452876
S -3.4998126373 0.5128014884 -2.0257603383
C -3.8757372981 0.2150868472 -0.3410924658
C -2.7156980675 0.1088806410 0.3737806448
H -2.6586940535 -0.0948969273 1.4324575825
O 0.4987849422 0.1147352266 -2.0377772879
C -0.6842527593 0.7191201958 -2.6123962193
S -1.0052408002 0.3860352711 -4.3835200357
C -0.4644100707 -1.3803988310 -4.5986049617
C 0.7338782377 -1.6385682904 -3.7363864181
C 1.1230821264 -0.9626529584 -2.6581051001
H -0.1431910431 -1.3700013522 -5.6475413691
H 2.0468039484 -1.1740699023 -2.1325601308
H 1.3761814818 -2.4586928770 -4.0326374319
H -0.4776966130 1.7942935353 -2.5994438598
C -1.6335364619 -2.4244471747 -4.5051225694
N -2.0915850277 -2.7823802688 -3.1798517040
C -1.2823213921 -3.7155612981 -5.3426452922
N -1.3939236561 -3.3468682326 -6.7578419484
O 0.0798748949 -4.1362323873 -5.1814418952
N -2.0640016416 -4.8244418402 -4.8494677817
H -2.4803129866 -1.9526718193 -5.0200568737
H -1.4020014991 -3.3386011960 -2.6753263785
H -2.3543295133 -1.9661085240 -2.6379839735
H -1.2245966175 -4.1696486207 -7.3377642129
H -2.3322035944 -3.0189338698 -6.9804920429
H 0.5762264812 -3.7280771126 -5.9112054439
H -3.0059188594 -4.5441759125 -4.5951952115
H -2.0886514913 -5.5818658336 -5.5282738465
C -5.3382721507 0.0559481642 0.0289685123
N -6.1224105397 0.7198613157 -1.0101223576
C -5.6856429586 0.5203150474 1.4843092186
N -5.3817006787 1.9364988462 1.6099308272
O -7.0777384066 0.3586702174 1.6925372752
N -4.9817421920 -0.3235205463 2.4308966958
H -5.5769185981 -1.0144673106 -0.0123657159
H -7.0542059840 0.3205094279 -1.0843379774
H -6.2096475660 1.7131975272 -0.7916979477
H -5.7603194460 2.2807529028 2.4915234853
H -4.3759375890 2.0923929131 1.6161875473
H -7.5366528405 1.0306859716 1.1598674909
H -5.0967955608 0.0289914111 3.3829415110
H -5.4154581358 -1.2482211170 2.4533573239
