118
# extracted from Terachem optimization
Co 0.1283611210 -0.0225826207 0.1961904849
N 0.5490141722 2.2676406127 -0.0346470323
C 1.7440346490 2.3579176661 -0.6452714207
C 2.0674347833 3.4078657755 -1.5078595558
C 1.1254488058 4.4127624388 -1.7569472703
C -0.0881783528 4.3403830293 -1.0651044940
C -0.3302085959 3.2578596995 -0.2251383470
H 3.0145715881 3.4096555978 -2.0393825963
H -1.2767172951 3.1629804359 0.3004267902
H -0.8526878094 5.0980888574 -1.2031522476
N 2.1145504847 0.0479400611 -0.1230123001
C 2.6577538013 1.1994486372 -0.4046566170
N 3.9899138638 1.4168052128 -0.5386796057
C 5.0017191851 0.3679246751 -0.3214491454
C 4.3366990172 -0.9784466934 -0.6160790002
C 3.0054863624 -1.0929502194 0.1290579218
H 5.3143583523 0.3815396988 0.7303527991
H 4.1640216379 -1.0720384393 -1.6962607064
H 5.0125499916 -1.7792943464 -0.3104709129
H 4.3053090572 2.3773955291 -0.5406497830
H 3.1785418912 -1.1699453171 1.2120098579
H 2.4735923318 -1.9987474821 -0.1700380573
C 6.2344410008 0.6511277713 -1.1860692017
C 7.4411081353 -0.2166798720 -0.8026240239
O 7.3724235705 -1.0025874183 0.1234739570
C 8.6963939667 -0.0345104816 -1.6256336990
H 6.5423883939 1.7029861061 -1.0820318104
H 6.0047774685 0.5128866087 -2.2514449223
H 8.5146576982 -0.3339078620 -2.6658265950
H 9.0037567843 1.0180725530 -1.6460346029
H 9.5005478561 -0.6444265018 -1.2107442279
C 1.3467310921 5.4527990170 -2.8177822274
C 0.5609458450 5.1191243172 -4.1118739272
O -0.2796013384 4.2409968334 -4.1259654117
C 0.9003447293 5.9556641890 -5.3225933183
H 1.0038623353 6.4411554172 -2.4818810421
H 2.4092388046 5.5667671483 -3.0624666460
H 0.8958714919 7.0242500034 -5.0775292312
H 1.9130920930 5.7131802426 -5.6698295629
H 0.1900504778 5.7529150934 -6.1258071778
N -0.1291827392 -2.2530169504 0.4869477533
C -0.1966879327 -2.4994372101 1.8097279256
C -0.7500661918 -3.6754794399 2.3196638354
C -1.2221011635 -4.6612890101 1.4442171830
C -1.1053747804 -4.4080981916 0.0721219208
C -0.5707286341 -3.1952719520 -0.3537290755
H -0.8559541781 -3.8193058995 3.3907806471
H -0.5012057058 -2.9617275693 -1.4122725655
H -1.4498967946 -5.1309188174 -0.6577247405
N 0.4584344405 -0.2136821181 2.1469275769
C 0.3421566348 -1.4040069517 2.6733440702
N 0.6582870368 -1.7088245628 3.9556472193
C 1.2259966623 -0.7333882140 4.9038385121
C 0.7656406607 0.6574647371 4.4638528155
C 1.0371680771 0.8560035292 2.9717611916
H 2.3212019854 -0.7717726882 4.8444973572
H -0.3083738667 0.7709125207 4.6640729468
H 1.2993552552 1.4074300337 5.0501842231
H 0.7245003417 -2.6869581407 4.2010972163
H 2.1193393308 0.8947977512 2.7830203367
H 0.6244828372 1.8031376288 2.6182306253
C 0.8181559423 -1.1032030704 6.3337687879
C 1.6126988457 -0.3262149619 7.3933791923
O 2.4580981690 0.4839646850 7.0622471958
C 1.2953274920 -0.6306553280 8.8397113843
H 0.9862516777 -2.1757245650 6.5161073321
H -0.2570113356 -0.9400332773 6.4905441193
H 0.2352642494 -0.4427757982 9.0507926081
H 1.4813357631 -1.6893065661 9.0599947442
H 1.9134395654 -0.0106378604 9.4909909094
C -1.8757950602 -5.9160065219 1.9515115204
C -3.3519896808 -6.0667077053 1.5018277110
O -3.8024709088 -5.4090145321 0.5879343558
C -4.1636486494 -7.0892320448 2.2628785986
H -1.3498541989 -6.8031738952 1.5684557437
H -1.8179518926 -5.9825003005 3.0437709804
H -3.6021067783 -8.0195820107 2.4060370037
H -4.4007287376 -6.6998709128 3.2618709059
H -5.0958203771 -7.2912707044 1.7326286768
N -1.8752989158 0.2205861704 0.3865825872
C -2.5519794064 0.2618252848 -0.7856315722
C -3.9425868704 0.3276740218 -0.8305242057
C -4.6847138339 0.3916609363 0.3554062533
C -3.9649799995 0.3990985360 1.5563871566
C -2.5780126994 0.3008942868 1.5263936064
H -4.4655758977 0.3040924731 -1.7814089174
H -2.0044581709 0.2756583280 2.4452000782
H -4.4761467091 0.4486959138 2.5092440604
N -0.3996069960 -0.0088098297 -1.7237113943
C -1.6615717416 0.2157167095 -1.9752981638
N -2.1889381734 0.3903147650 -3.2088634911
C -1.3383407477 0.4945399319 -4.4083379228
C -0.1429627045 -0.4334407923 -4.1794534834
C 0.5387014550 -0.1008512251 -2.8505692950
H -0.9777548922 1.5268938808 -4.5041083974
H -0.4897897053 -1.4753258522 -4.1759080373
H 0.5660269799 -0.3157739184 -5.0010235023
H -3.1328303882 0.7430536984 -3.2772573461
H 1.0755243585 0.8520985337 -2.9342372656
H 1.2823858635 -0.8622769800 -2.6003313713
C -2.1583797601 0.1509904547 -5.6544318810
C -1.4274889838 0.4993573946 -6.9584066244
O -0.3144372992 0.9904321191 -6.9363381507
C -2.1632115406 0.2048013885 -8.2462820199
H -3.1105884536 0.7037610925 -5.6534087514
H -2.4320671407 -0.9132850058 -5.6643996148
H -2.3922118382 -0.8656799758 -8.3210675147
H -3.1215739518 0.7378736942 -8.2768286310
H -1.5513389393 0.5058981435 -9.0981672170
C -6.1870414573 0.4191439749 0.3404604505
C -6.8421622291 -0.7429404298 1.1324158394
O -6.2308687422 -1.3419383068 1.9916487644
C -8.2799981405 -1.0415547844 0.7794219984
H -6.5539940271 1.3428678795 0.8131566044
H -6.5750787434 0.4331550419 -0.6838202305
H -8.8724192712 -0.1210818207 0.7166012064
H -8.3262661646 -1.5201185925 -0.2077239743
H -8.7118319002 -1.7148924297 1.5216534160
