148
# extracted from Terachem optimization
Co 0.2162359160 0.1232138370 0.1431205258
O 0.4134713143 2.3282446145 0.1561652293
C 1.7640627442 2.8331413948 0.0226640630
O 2.0148640397 3.5659099933 1.1981303721
C 0.7581852024 4.0426650226 1.5897561096
C -0.1889356244 3.3021552811 1.0073692843
H -1.2647526255 3.2916755154 1.0408985659
H 1.7963490931 3.5143921184 -0.8411087466
N 2.3128154507 0.4059551699 -0.0850529768
C 2.6741849346 1.6593599488 -0.1166142596
O 3.9803325331 1.8265355372 -0.3143018242
C 4.5265016411 0.5514523156 -0.4092032393
C 3.4878489596 -0.3208574175 -0.2667885547
H 3.5036846691 -1.3972191736 -0.2916432788
C 6.0228386043 0.4424149462 -0.5750990330
C 6.6117851601 1.7941336860 -1.0372500921
C 6.6393116517 0.0914663871 0.8063403274
C 6.3938275736 -0.6761535538 -1.6116935231
N 5.9676470059 -2.0027724808 -1.1222465108
C 5.8073603629 -0.4619358503 -3.0097527967
H 6.4920947402 2.5594838074 -0.2655369334
H 7.6834934577 1.6778343496 -1.2257285277
H 6.1433895461 2.1663747240 -1.9522650729
H 6.2141497201 -0.8277196061 1.2186513331
H 7.7246716383 -0.0308224241 0.7125280203
H 6.4575524206 0.8960528119 1.5261594916
H 7.4913980477 -0.6148590810 -1.6987830371
H 6.0943098200 -2.6823396707 -1.8713724509
H 6.5848865039 -2.3115224652 -0.3730780206
H 6.0981846370 0.5047258366 -3.4284584230
H 6.1844044960 -1.2331059609 -3.6918094307
H 4.7138421962 -0.5285703822 -3.0011412740
C 0.7104048788 5.2412268106 2.4959675639
C -0.5734951198 5.2006948978 3.3499542415
C 1.9290516175 5.2187570342 3.4481843142
C 0.7548137281 6.5521098439 1.6139907193
N 1.8446709726 6.4534623057 0.6319419177
C -0.5403515281 6.8419175424 0.8514759176
H -0.5497949707 4.3503777741 4.0399724935
H -0.6556671394 6.1192152772 3.9408280326
H -1.4802649037 5.1195108627 2.7426345402
H 2.8819187775 5.2302722162 2.9132865989
H 1.8912938217 6.0925389313 4.1067286545
H 1.9172260287 4.3232306687 4.0789798469
H 0.9061525443 7.3715103293 2.3391154061
H 1.8311595857 7.2782835499 0.0339017293
H 2.7509823337 6.4623118386 1.0962270326
H -1.3788226845 7.0339172383 1.5257117908
H -0.4124983210 7.7406990260 0.2376440248
H -0.7988881127 6.0164549875 0.1787828707
O 0.2229592774 -2.0928844759 0.3560867838
C 0.1248845147 -2.5911369859 1.7090886088
O 1.3144047291 -3.3063070303 1.9446125046
C 1.6986482382 -3.7749045678 0.6820718379
C 1.0876144204 -3.0461962406 -0.2562908085
H 1.1128910670 -3.0398970576 -1.3321576288
H -0.7302547384 -3.2817176600 1.7683670499
N -0.0228702298 -0.1588331371 2.2197375145
C -0.0106013476 -1.4063971114 2.6054317481
O -0.1550295567 -1.5523392490 3.9192857670
C -0.2606573748 -0.2704500208 4.4476229474
C -0.1789834358 0.5857391387 3.3893581451
H -0.2250808922 1.6616935187 3.3902057621
C -0.3735883307 -0.1424035568 5.9477192821
C -0.8026112668 -1.4917000912 6.5681155369
C 1.0246516393 0.2288747956 6.5119258394
C -1.4086395591 0.9699203728 6.3388519923
N -0.9614883943 2.2917852162 5.8548589525
C -2.8278328559 0.7122069495 5.8257678550
H -0.0235022203 -2.2482711363 6.4408216505
H -0.9668474988 -1.3620879292 7.6423176323
H -1.7232901775 -1.8820686868 6.1268579914
H 1.4131478978 1.1490339226 6.0665726980
H 0.9659628117 0.3587867998 7.5987131981
H 1.7464048877 -0.5694477842 6.3115094900
H -1.4435864246 0.9374705158 7.4404643523
H -1.7124321847 2.9641997984 6.0072759862
H -0.1850132099 2.6246019215 6.4241839300
H -3.2237587401 -0.2372844968 6.1931149305
H -3.5032508047 1.5003588897 6.1777831892
H -2.8600664192 0.7063610272 4.7303740913
C 2.6265370159 -4.9561348971 0.6208266052
C 3.4635512280 -4.8998927775 -0.6737240896
C 3.5921432215 -4.9193064554 1.8281426842
C 1.7698734023 -6.2835683801 0.6716722255
N 0.8140923851 -6.2167558605 1.7864862502
C 0.9813580763 -6.5744470914 -0.6075239824
H 4.1448793021 -4.0424357193 -0.6564626932
H 4.0637180922 -5.8114988597 -0.7659572478
H 2.8436273821 -4.8236123758 -1.5722092650
H 3.0676219383 -4.9335558412 2.7866403824
H 4.2602468817 -5.7856477440 1.7855611398
H 4.2126854375 -4.0167858627 1.8067685517
H 2.5151709110 -7.0898054356 0.7943754888
H 0.2224912195 -7.0460512810 1.7701535505
H 1.2997989972 -6.2401718476 2.6811246030
H 1.6366716061 -6.7335983801 -1.4674702838
H 0.3969906621 -7.4923359673 -0.4776522700
H 0.2787690351 -5.7648812613 -0.8345762897
O -2.0372123149 0.1827993530 -0.0573127808
C -2.5312539123 0.1458584827 -1.4160970143
O -3.2149964135 1.3597293502 -1.6146730166
C -3.6827213619 1.7112538795 -0.3422868788
C -2.9766129057 1.0465414089 0.5776666904
H -2.9851363614 1.0251971186 1.6538317213
H -3.2432563739 -0.6890520318 -1.5064479970
N -0.1046750602 -0.0656316313 -1.9259755955
C -1.3491825776 0.0028172334 -2.3167692288
O -1.4922679921 -0.1136555237 -3.6341904290
C -0.2099887996 -0.2625415210 -4.1556442285
C 0.6402421786 -0.2337880326 -3.0909685215
H 1.7125450358 -0.3292669894 -3.0989566314
C -0.0647677353 -0.3474823197 -5.6546911114
C -1.4035477763 -0.7702479288 -6.3009883922
C 0.3089253605 1.0623008539 -6.1883610395
C 1.0624492193 -1.3679403645 -6.0433963854
N 2.3583638817 -0.9529571793 -5.4706929629
C 0.7743717002 -2.8098187601 -5.6144870653
H -2.1604858976 0.0098201997 -6.1810772749
H -1.2568960454 -0.9278403098 -7.3741510611
H -1.8025067223 -1.6929194444 -5.8718220013
H 1.2276034088 1.4422754352 -5.7321490911
H 0.4442591779 1.0242957095 -7.2752092473
H -0.4900442522 1.7803592947 -5.9772981722
H 1.0812330238 -1.3495227166 -7.1459312704
H 3.0347382861 -1.7008237636 -5.6186908066
H 2.7255392523 -0.1519276676 -5.9819899650
H -0.1526373493 -3.1848306096 -6.0538159178
H 1.5810729294 -3.4692839865 -5.9548373377
H 0.7067044458 -2.8988028934 -4.5240681479
C -4.8465611878 2.6607113277 -0.2600581502
C -4.7691079530 3.4874553193 1.0397833714
C -4.8097659984 3.6349094410 -1.4601971060
C -6.1880395417 1.8256346277 -0.3022718835
N -6.1516564574 0.8871101847 -1.4326434360
C -6.4723524308 1.0227249822 0.9692447388
H -3.9293033315 4.1899985935 1.0003281506
H -5.6847485120 4.0751830726 1.1627934773
H -4.6555477887 2.8652219376 1.9325690828
H -4.8469404635 3.1170261445 -2.4214989230
H -5.6632173076 4.3180652130 -1.4003424043
H -3.8965960609 4.2399102700 -1.4494428718
H -6.9836305092 2.5857204455 -0.4008276202
H -6.9811206796 0.2962363605 -1.4047385843
H -6.1968467818 1.3866272032 -2.3187384862
H -6.5887583203 1.6650336766 1.8457990908
H -7.4117241374 0.4707731061 0.8516958985
H -5.6808622414 0.2897611844 1.1614310202
