124
# extracted from Terachem optimization
Co -0.0231505038 -0.3127004047 -0.1206681105
O 0.2881275265 1.8830894901 -0.1267524079
C 1.6640535511 2.2440571367 -0.3143879103
N 1.7573322749 3.5685021230 0.2914363809
C 0.4400137929 4.1158928781 0.1568468381
C -0.4162837508 3.1128004245 -0.0652199093
H -1.4856073060 3.0471696911 -0.1670236555
H 2.4839151407 4.1440261624 -0.1271825077
H 1.8638963893 2.2794175137 -1.4028208488
N 2.0947599435 -0.0720828574 0.1870876552
C 2.5415060263 1.1378116432 0.2659039894
S 4.0754762040 1.7026178430 0.8712960534
C 5.0850232330 0.1340758399 1.0431621703
C 4.4216843127 -1.0151785905 0.2942701457
C 2.9434907967 -1.1818695243 0.6538772871
H 5.1044027197 -0.0791508844 2.1139244595
H 4.5223892186 -0.8746805832 -0.7886808219
H 4.9634946668 -1.9309417098 0.5478389159
H 2.8250799762 -1.2740882251 1.7430966935
H 2.5443167931 -2.0993138279 0.2134162245
C 6.5442823859 0.4931073579 0.6094075155
N 6.7926992343 0.7659533892 -0.7879798852
C 7.5261684919 -0.6064004399 1.0576565014
O 7.2593611252 -0.8723072529 2.4117125488
O 7.3244585487 -1.7455886200 0.2366324883
H 6.8269294011 1.3853011546 1.1826691490
H 6.6675049657 -0.0600534240 -1.3648486969
H 6.2459870463 1.5402167217 -1.1507497228
H 8.5462248932 -0.2264634077 0.9169223344
H 7.9658422115 -1.4302896520 2.7742572098
H 8.1709058890 -2.1968801052 0.0954431387
C 0.2181188847 5.6164313654 0.3168862814
N 0.7697503165 6.2015813304 1.5301463293
C -1.2772381796 5.9758126160 0.2403789728
O -1.7548696985 5.4933367617 -0.9873392113
O -1.9974932645 5.4482322170 1.3547789001
H 0.6983145614 6.1108747094 -0.5382342580
H 0.3103338460 5.8341721951 2.3597995420
H 1.7694588923 6.0461534230 1.6213142277
H -1.3875486705 7.0597907546 0.3310148705
H -2.6936892820 5.7312043290 -1.0918382759
H -1.7008990315 4.5313009940 1.4933149139
O -0.6137514073 -2.4324855056 0.0582957049
C -1.3055782726 -2.6297254923 1.3304621257
N -1.1389253352 -4.0237861472 1.6746408108
C -0.1367298373 -4.5409640081 0.7841883317
C 0.1702835505 -3.6033446759 -0.1157763092
H 0.8072225490 -3.6239406654 -0.9834206398
H -2.0072630677 -4.5553314227 1.6311276629
H -2.3532650545 -2.3547219326 1.1891921791
N -0.2909487431 -0.5127527188 1.9568114298
C -0.7094326523 -1.6621008679 2.3721756440
S -0.7934667057 -2.2754412715 3.9996634719
C -0.3669774024 -0.7770289585 5.0351951904
C -0.5513510253 0.5094368468 4.2382325622
C 0.2034829074 0.4954129743 2.9090127757
H 0.6847856474 -0.8975877429 5.3034160108
H -1.6168982153 0.6967626169 4.0563481077
H -0.1837250624 1.3369681895 4.8519081402
H 1.2736127638 0.3116270811 3.0776562647
H 0.1262924930 1.4629208942 2.4069887732
C -1.2062932471 -0.8998444747 6.3493214898
N -2.6373427590 -0.7169087400 6.2557171021
C -0.6782630532 0.0662333833 7.4275279263
O 0.7165679814 -0.0932449962 7.4808759729
O -1.0491909917 1.3899867938 7.0729816240
H -1.0217424623 -1.9068124694 6.7453113771
H -2.8800718106 0.2310842792 5.9848596662
H -3.0870968859 -1.3878794758 5.6410274961
H -1.1503493440 -0.2032988881 8.3809195886
H 1.0620047828 0.3907057412 8.2479799171
H -1.3068875645 1.8772133668 7.8703540501
C 0.3168425168 -5.9857843703 0.9623656517
N 0.5119597480 -6.4064931103 2.3403860925
C 1.6235417157 -6.3036448571 0.2095761278
O 1.4394422056 -5.9759083513 -1.1502047973
O 2.7340876069 -5.6368397711 0.7698026200
H -0.4645331566 -6.6217759741 0.5214434312
H 1.3266288478 -5.9439725030 2.7379614641
H -0.2917989557 -6.2011924745 2.9265658912
H 1.8382345315 -7.3665575320 0.3499732560
H 2.1947996072 -6.3400351390 -1.6408702736
H 2.5671013188 -4.6832234480 0.6774617169
O -2.2356243481 -0.2541103729 -0.3727386956
C -2.6119492225 -0.4845598549 -1.7563217860
N -3.8117980144 0.3040216866 -1.9869348618
C -4.0237129031 1.0881220993 -0.8131429752
C -3.0809596739 0.7947731134 0.0850062770
H -2.8747775792 1.1685075491 1.0727277766
H -4.6244599827 -0.2310173960 -2.2800120817
H -2.7851041498 -1.5580064760 -1.8915450303
N -0.2329023954 -0.1724743220 -2.2213516781
C -1.4372988877 -0.1004784464 -2.6805974401
S -1.9749956715 0.2936885331 -4.2932466747
C -0.3911508144 0.2816692091 -5.2848252213
C 0.6982266876 -0.4797301623 -4.5400601299
C 0.9106515443 0.0570245325 -3.1237636538
H -0.1045795717 1.3304025546 -5.3877106131
H 0.4622869197 -1.5500321672 -4.4992811710
H 1.6288966078 -0.3748131149 -5.1052090686
H 1.1073216059 1.1373308124 -3.1634584886
H 1.7826372986 -0.4118519526 -2.6602667769
C -0.7570769843 -0.2448387294 -6.7088235701
N -1.0975196345 -1.6436927082 -6.8507253682
C 0.3719607865 0.0676465435 -7.7113757828
O 0.7214558285 1.4152415943 -7.5350434080
O 1.4781830187 -0.7889197006 -7.4613293723
H -1.6186315149 0.3444074123 -7.0483668368
H -0.3192807517 -2.2489169756 -6.6076814358
H -1.9244942673 -1.9088795023 -6.3250871264
H -0.0156365902 -0.1217121533 -8.7207470343
H 1.3735968872 1.6587408554 -8.2116494257
H 1.7712193732 -1.1852541492 -8.2955225275
C -5.2276438118 2.0333387110 -0.7059854832
N -6.1368718010 2.0361579701 -1.8291258843
C -4.7975337607 3.4946625093 -0.4355172328
O -3.9518187079 3.4841593932 0.6891812086
O -4.1815543784 4.1001058470 -1.5546312506
H -5.7951292400 1.7285573067 0.1806328138
H -5.6918524389 2.3158892718 -2.6974790715
H -6.6570155591 1.1742769786 -1.9506121841
H -5.7056832206 4.0805458375 -0.2673085056
H -3.7067383740 4.4041559780 0.9108216913
H -3.3318339082 3.6503798472 -1.7069209689
