115
# extracted from Terachem optimization
Co 0.3031277311 0.1706487172 0.1766121651
O 0.5091121241 2.4135345327 0.1937690095
C 1.7757442339 2.8629005142 -0.3600763194
C 2.1348743806 4.0690638661 0.4668528956
C 1.1757704525 4.3562142753 1.3488170485
C 0.0565324648 3.3563818627 1.2108930791
H -0.1484488319 2.7955836017 2.1281228997
H -0.8719806033 3.8251601934 0.8668405727
H 3.0427384384 4.6410536848 0.3068395739
H 1.6009287496 3.1253053766 -1.4154865016
N 2.3769035945 0.4479322877 -0.1382408582
C 2.7462451066 1.7097926241 -0.2924000037
N 4.0929003451 1.7814911398 -0.4331134058
C 4.6229245113 0.4978883087 -0.3528398725
C 3.5324812521 -0.3129879163 -0.1672764011
H 3.5145912928 -1.3851215369 -0.0467270297
H 4.6350311708 2.6276350025 -0.5525940229
C 6.0964566056 0.2049790146 -0.4915379734
C 6.5391174100 0.2464256336 -1.9674314350
C 6.4281598163 -1.0897262034 0.2271712323
C 6.9668338342 -2.1795700994 -0.3187927780
H 6.6333868627 1.0085371398 0.0388786869
H 7.6180333851 0.0846218485 -2.0442043001
H 6.0293201555 -0.5242017589 -2.5541034194
H 6.3139512421 1.2181664196 -2.4199402210
H 6.2048265599 -1.0843574736 1.2941806403
H 7.1923081167 -3.0528533249 0.2862266692
H 7.2267332648 -2.2460708256 -1.3711426998
C 1.1185929879 5.5057648518 2.3238482561
C 0.8164862857 5.0228074221 3.7606530427
C 0.1227667951 6.5785236165 1.9010380963
C -0.3659503917 6.7782167129 0.6770889289
H 2.1156414894 5.9697101768 2.3393014137
H 0.8726267007 5.8662545226 4.4556743349
H -0.1917263813 4.6001425857 3.8406227337
H 1.5379660069 4.2680491350 4.0923362987
H -0.1766590050 7.2501577555 2.7053723249
H -1.0526076334 7.5943687654 0.4743063402
H -0.0844335185 6.1613630851 -0.1737845400
O -0.2819321195 -2.0064577418 0.3885194883
C -0.7089435948 -2.3069130372 1.7423162369
C -0.3272331088 -3.7492332132 1.9388988829
C 0.2863409297 -4.2390235701 0.8587870320
C 0.3955492903 -3.1601247936 -0.1890384617
H 1.4312160069 -2.8832845579 -0.4169080744
H -0.1073853248 -3.4193618567 -1.1257778777
H -0.5736265281 -4.3061095792 2.8369497099
H -1.7958351631 -2.1444502194 1.7843849580
N 0.4255712682 -0.1382979411 2.2244111026
C -0.0245166828 -1.3125412157 2.6506103666
N 0.2220744321 -1.4452058548 3.9733987474
C 0.8767477434 -0.3038767492 4.4299258156
C 0.9976231694 0.4893920602 3.3195273077
H 1.4716834323 1.4547981971 3.2402272904
H 0.0028517493 -2.2564636798 4.5376520659
C 1.2801832391 -0.1078558355 5.8700190382
C 0.0512104760 0.1461593101 6.7650184853
C 2.3552590124 0.9591715046 5.9594654737
C 2.2830507995 2.0934278593 6.6559730018
H 1.7441377926 -1.0507786657 6.2039232701
H 0.3565986581 0.2321746616 7.8115190867
H -0.4660213548 1.0668203725 6.4768754450
H -0.6664051624 -0.6781977473 6.6943301075
H 3.2669118725 0.7314867457 5.4066705685
H 3.1215008869 2.7831681141 6.6870069774
H 1.4121744864 2.3706994891 7.2424710680
C 0.7999887195 -5.6394028895 0.6363469619
C 2.2848557791 -5.6344978507 0.2061367494
C -0.0450884926 -6.4196022915 -0.3617389444
C -1.2997578168 -6.1529294443 -0.7238860279
H 0.7411386660 -6.1647523718 1.6005161610
H 2.6589307826 -6.6608719703 0.1426595204
H 2.4167222277 -5.1757786311 -0.7804503513
H 2.9066119401 -5.0957030379 0.9291518614
H 0.4527807417 -7.2939912320 -0.7800975759
H -1.8296367508 -6.7903882123 -1.4249920859
H -1.8573786727 -5.3115679832 -0.3176119611
O -1.9850787503 0.2123868516 0.0321112845
C -2.4412378012 -0.3609366644 -1.2218199024
C -3.7381308839 0.3457695788 -1.5057718751
C -4.0236836691 1.2350774557 -0.5527081318
C -2.9190786595 1.2388965204 0.4737488867
H -2.3860665583 2.1938626463 0.5176984721
H -3.2655310398 0.9817561933 1.4800741316
H -4.3636637037 0.1051931195 -2.3589995503
H -2.5802454168 -1.4391052053 -1.0546669149
N -0.0675289968 0.0069693041 -1.8760979677
C -1.3342026841 -0.1652769657 -2.2281677216
N -1.4360002263 -0.1964255259 -3.5771807838
C -0.1696017212 -0.0246363452 -4.1295986121
C 0.6634375308 0.1025085815 -3.0481114734
H 1.7325231991 0.2461522137 -3.0401081776
H -2.2935063314 -0.2929137561 -4.1061675214
C 0.0838031944 -0.0348105688 -5.6166519216
C 0.0460405100 -1.4688535579 -6.1812406050
C 1.3587569021 0.7276591767 -5.9249610162
C 2.4381358901 0.2437835252 -6.5387849104
H -0.7410218574 0.5269329398 -6.0853541047
H 0.1707383969 -1.4508364940 -7.2675634749
H 0.8415887362 -2.0847917138 -5.7502471362
H -0.9112198542 -1.9537701159 -5.9620340620
H 1.3463739606 1.7732969244 -5.6165978795
H 3.2962123660 0.8780683927 -6.7412132078
H 2.5094703287 -0.7829971333 -6.8850836012
C -5.2376827345 2.1228941120 -0.4396315192
C -4.8387735710 3.6072163896 -0.2736533127
C -6.1772692713 1.6909111008 0.6776689593
C -6.2253253572 0.4937000177 1.2614712929
H -5.7912524087 2.0401606511 -1.3863360406
H -5.7320853153 4.2390994225 -0.2928935004
H -4.3328945193 3.7848553853 0.6824709488
H -4.1794065307 3.9340864419 -1.0847348451
H -6.8863428662 2.4590145155 0.9855512398
H -6.9553134927 0.2745661927 2.0346334076
H -5.5633895546 -0.3213317612 0.9761640766
