130
# extracted from Terachem optimization
Co 0.0842133655 0.0318466987 0.0292561302
N 0.3993769318 2.1939098454 -0.1546314683
C 1.6872699068 2.4792683324 -0.0617937823
S 2.0740357551 4.1426363535 -0.3289893576
C 0.3826934968 4.4710781460 -0.5523135127
C -0.3391189320 3.3092113537 -0.4350610141
H -1.4111905997 3.2328501653 -0.5557926001
N 2.2211197708 0.1942433212 0.2657101064
C 2.6592742293 1.4077118250 0.1982705216
O 3.9037865362 1.8370898418 0.3519257293
C 5.0091782901 0.8700694236 0.4757730716
C 4.5719949756 -0.4833271527 -0.0651451834
C 3.2064325708 -0.8649362737 0.5099244790
H 5.2321170668 0.8238805484 1.5448638032
H 4.5048774390 -0.4328684263 -1.1571735971
H 5.3219714131 -1.2356644670 0.1895066114
H 3.2724328434 -1.0466867351 1.5917334875
H 2.8287701382 -1.7856896881 0.0565693062
C 6.2285968570 1.5305639952 -0.2344411262
N 5.9175231762 1.6482606087 -1.6747157241
N 6.4235472936 2.8204061655 0.4008689818
C 7.4647980196 0.6597492626 0.0346582282
C 8.3414985053 0.8563963919 1.0217745582
O 7.5343859532 -0.3684633895 -0.8775930808
H 6.4584830765 2.4233018656 -2.0549242926
H 6.2425875006 0.8159803802 -2.1656114477
H 7.2846934580 3.2502749388 0.0695826412
H 5.6480752377 3.4374611834 0.1720394267
H 9.2027104542 0.2068377892 1.1592426720
H 8.2154332945 1.6774121077 1.7147830342
H 8.3386670304 -0.8872691594 -0.7108047094
C -0.0892056756 5.8584122310 -0.9612173300
N 1.0919096735 6.7526903523 -0.8924871411
N -0.6032805035 5.7376864462 -2.3190609368
C -1.2181420281 6.3878734853 -0.0668964769
C -1.5653118811 5.9342241542 1.1408166027
O -1.7582025135 7.4924995112 -0.6662176944
H 0.8963154761 7.5945902770 -1.4322311391
H 1.2535965961 7.0605159851 0.0678167660
H -1.1165418730 6.5801292779 -2.5712881519
H 0.1740175957 5.6239418400 -2.9677414576
H -2.3250042898 6.4342074847 1.7356257278
H -1.0896805246 5.0663303989 1.5764215730
H -2.4387526368 7.8839134226 -0.0941989197
N -0.1445947020 -2.1460603935 0.3807966545
C -0.2932124308 -2.3891981122 1.6713946478
S -0.6226669838 -4.0395156998 2.0605383914
C -0.5366368337 -4.4256164111 0.3688299726
C -0.2878804877 -3.2879009406 -0.3584065198
H -0.2161048163 -3.2476434741 -1.4369127259
N -0.1550705712 -0.0809650840 2.1911709767
C -0.2290197020 -1.2885713915 2.6430306524
O -0.2409919672 -1.6925208513 3.9062152205
C -0.2224295576 -0.6977560325 4.9900558763
C -0.8006273380 0.6126670620 4.4788972355
C -0.1112600991 1.0099227149 3.1711663395
H 0.8294772108 -0.5907297709 5.2692162316
H -1.8749058028 0.4884997121 4.3042678782
H -0.6741950138 1.3905615961 5.2354724733
H 0.9381244196 1.2843167264 3.3482876600
H -0.5951468583 1.8813385584 2.7211811788
C -0.9601000346 -1.3640590703 6.1893102543
N -2.3751863131 -1.5503691593 5.8166132305
N -0.2830364400 -2.6248737001 6.4357212261
C -0.7775729968 -0.4617798532 7.4189265576
C 0.1801223537 -0.6005718180 8.3384659803
O -1.7344352327 0.5272856154 7.4321261230
H -2.7605262536 -2.3017762376 6.3866135880
H -2.9107693262 -0.7167548621 6.0573267378
H -0.6301044649 -3.0466374739 7.2947853506
H -0.4694882663 -3.2656566115 5.6680631352
H 0.2542407984 0.0687518246 9.1923284991
H 0.9113199668 -1.3934898789 8.2559152524
H -1.6205716509 1.0694412437 8.2302295639
C -0.8798349450 -5.8294937409 -0.1051232329
N -0.9301140334 -6.6860230160 1.1046078541
N -2.1817769574 -5.7433822263 -0.7554133472
C 0.1273528577 -6.3888210097 -1.1188096307
C 1.3661510362 -5.9466289301 -1.3525545770
O -0.4146786083 -7.5108797732 -1.6837784879
H -1.4105376729 -7.5538509595 0.8705999998
H 0.0125672819 -6.9507975394 1.3956792098
H -2.3717842001 -6.6071142597 -1.2600866200
H -2.9026154661 -5.6176522006 -0.0464831278
H 2.0342844915 -6.4698647051 -2.0314388011
H 1.7547508103 -5.0651197537 -0.8613464369
H 0.2284504144 -7.9256812706 -2.2819425709
N -2.0963597031 -0.0011500881 -0.3597442445
C -2.3302324285 -0.1382662886 -1.6528196931
S -3.9873152579 -0.3990036301 -2.0610524839
C -4.3890735387 -0.2992546991 -0.3736562816
C -3.2505133805 -0.0977458465 0.3664429413
H -3.2188083280 -0.0300196606 1.4453915171
N -0.0116124087 -0.1243362601 -2.1332020490
C -1.2129985529 -0.1308233019 -2.6069150976
O -1.5954708715 -0.1169716111 -3.8761209012
C -0.5855232743 -0.1499125854 -4.9462182859
C 0.6936432578 -0.7774710204 -4.4132342467
C 1.0956039811 -0.1104428277 -3.0955713331
H -0.4345848906 0.8940212299 -5.2337713932
H 0.5248953619 -1.8464556225 -4.2448386177
H 1.4885538574 -0.6782048740 -5.1561361710
H 1.4073325560 0.9301433467 -3.2603573197
H 1.9440422530 -0.6259366088 -2.6369625494
C -1.2641866155 -0.8780413240 -6.1447655701
N -1.4932819318 -2.2846378210 -5.7604076215
N -2.5023039465 -0.1671955720 -6.4078450325
C -0.3486709184 -0.7333332225 -7.3690946134
C -0.4546049212 0.2190286741 -8.2985545488
O 0.6145344234 -1.7164741306 -7.3664512439
H -2.2674652784 -2.6463288262 -6.3149918508
H -0.6827082577 -2.8500000062 -6.0112836261
H -2.9319441375 -0.5143426472 -7.2628509148
H -3.1513174791 -0.3164368209 -5.6392669669
H 0.2228810363 0.2664873505 -9.1478168821
H -1.2279596194 0.9719431532 -8.2279478915
H 1.1644636445 -1.6261747255 -8.1622028171
C -5.8083557382 -0.5908502579 0.0878036619
N -6.6537132208 -0.6301707537 -1.1297347373
N -5.7693967104 -1.8865281562 0.7561538324
C -6.3474314962 0.4441755143 1.0841338224
C -5.8629210902 1.6664176200 1.3202639610
O -7.4993254953 -0.0529194156 1.6304288519
H -7.5403817922 -1.0745824917 -0.8953366311
H -6.8820148833 0.3167369541 -1.4377232807
H -6.6453400315 -2.0442901615 1.2511155554
H -5.6563119946 -2.6200059419 0.0580903405
H -6.3731516510 2.3571709948 1.9863843508
H -4.9581572903 2.0191409061 0.8443527415
H -7.8998505585 0.6078484419 2.2189826776
