106
# extracted from Terachem optimization
Co -0.2033328241 -0.3256847501 -0.0729678489
N 0.0788670674 1.7572710188 -0.4107576142
C 1.3106874370 2.1462629977 -0.5055607178
N 1.4947706319 3.4522236984 -0.8295895343
C 0.1853178216 4.1336071470 -0.8160283301
C -0.7806548193 2.9140836015 -0.7009243133
H -1.5325493880 3.0360759018 0.0765507791
H -1.3051517536 2.7432406015 -1.6447141194
H 0.0340177167 4.6688456863 -1.7571582148
H 2.3622772286 3.9423585337 -0.6569684210
N 2.0344110279 -0.0782848809 -0.2605174411
C 2.3935500000 1.1498650374 -0.3519273910
C 3.8701689243 1.4115290641 -0.2465358485
C 4.4586399416 -0.0258316359 -0.2183988562
C 3.2071539529 -0.9395813161 -0.0632751373
H 3.1343030799 -1.3752403487 0.9386037923
H 3.1733166442 -1.7643931176 -0.7806548772
H 4.9680378611 -0.2407942900 -1.1619202621
H 4.2474058106 2.0194951205 -1.0764068825
H 4.0821787230 1.9486998216 0.6876239528
C 5.4573620980 -0.2411742922 0.9376454918
O 4.8025551103 -0.0229221745 2.1648644403
C 6.6642467384 0.6871331581 0.8343317092
O 6.9430641874 1.4872646369 1.7015387880
O 7.3592500168 0.5133021011 -0.2991190172
H 5.8370166198 -1.2737297497 0.8800947469
H 5.3674975090 0.5829505040 2.6826917938
H 8.1312345183 1.1130041819 -0.2739119785
C 0.0723380456 5.1486572736 0.3266037012
O 0.2946252367 4.4778243381 1.5597311585
C -1.3183685109 5.8024440998 0.3375716938
O -2.2491423602 5.5135534803 -0.3817250436
O -1.3704575051 6.7333115388 1.3085752749
H 0.8159017674 5.9484242549 0.1792151892
H 0.2623854470 5.1413540874 2.2692256361
H -2.2669798182 7.1228402081 1.3159608108
N -0.0288194881 -2.4378203076 0.2454398860
C 0.1252930923 -2.7534839919 1.4950402212
N 0.1560824817 -4.0803508901 1.7737287605
C 0.2278088339 -4.8286661126 0.5041511145
C -0.0844258635 -3.6929685553 -0.5232891226
H 0.6419830104 -3.6623283178 -1.3391143607
H -1.0800799885 -3.8153760578 -0.9608290998
H -0.5343528211 -5.6100351787 0.4787589869
H 0.5537855437 -4.4441878077 2.6299375435
N 0.1265572109 -0.4777744418 2.1041393494
C 0.2130641290 -1.6882451283 2.5187746783
C 0.4377727288 -1.8622091645 3.9954410081
C 0.3319358470 -0.4023171445 4.5181704301
C 0.3153946648 0.4573523882 3.2208526920
H 1.2673485334 0.9754856988 3.0605888092
H -0.4801799751 1.2081776222 3.2041710586
H -0.6057923185 -0.2680536236 5.0645727954
H -0.2974596088 -2.5385110654 4.4457374956
H 1.4367488358 -2.2817625818 4.1768441241
C 1.5023476326 -0.0113314413 5.4442236887
O 2.7180308125 -0.1750550228 4.7534837889
C 1.5258029122 -0.8534487523 6.7178785201
O 2.4620756109 -1.5691966015 7.0020357457
O 0.4168039873 -0.7080416345 7.4560446950
H 1.3682674504 1.0382175746 5.7499584932
H 3.3018165032 -0.7013440298 5.3341343979
H 0.5176123488 -1.2501992929 8.2636648566
C 1.5963212640 -5.4908957493 0.3139635036
O 2.5996607441 -4.4863565025 0.3314245306
C 1.6158488738 -6.2820527060 -0.9993021002
O 0.6454114226 -6.5450332696 -1.6694273662
O 2.8786221788 -6.6454848152 -1.3009952224
H 1.7604368007 -6.2159874705 1.1299130975
H 3.4462511493 -4.9154209198 0.1209208339
H 2.8597020000 -7.1651105383 -2.1288680969
N -2.3400742047 -0.1226052950 -0.1041501113
C -2.8577809976 -0.1130256290 -1.2942282117
N -4.2021954401 0.0585436794 -1.3577138089
C -4.6892195822 0.4534289645 -0.0219197916
C -3.4413963718 0.1024040012 0.8511063512
H -3.1792523164 0.9053658947 1.5442164596
H -3.6134764694 -0.8078089949 1.4350046856
H -5.5570075289 -0.1446262222 0.2615254970
H -4.6653777175 0.3672067932 -2.2027729855
N -0.7421675390 -0.5140262337 -2.2429677328
C -1.9863093775 -0.3087571400 -2.4708211524
C -2.3921008231 -0.2541625972 -3.9180939226
C -1.0191343841 -0.2853807825 -4.6461679378
C -0.0096085877 -0.6280045755 -3.5098289845
H 0.8473348336 0.0522561405 -3.4779878261
H 0.3839004504 -1.6481416240 -3.5919305195
H -1.0017421025 -1.0511090965 -5.4246794271
H -3.0273107748 -1.1104754395 -4.1764752556
H -2.9616462828 0.6567270140 -4.1386182316
C -0.6842583593 1.0729660817 -5.2937873889
O -0.7168309084 2.0931008371 -4.3153288011
C -1.6577592660 1.4347676013 -6.4140160536
O -2.3265317762 2.4466256391 -6.3816098074
O -1.6773886432 0.5305650767 -7.3995708395
H 0.3186069208 1.0048804608 -5.7441250711
H -1.2526136499 2.8149965537 -4.7010947957
H -2.2934007582 0.8445303308 -8.0913202583
C -5.0930170743 1.9354303041 0.0140409006
O -3.9661911650 2.7147967857 -0.3349634777
C -5.6466256117 2.2920262496 1.3983289411
O -6.0312627879 1.4938384590 2.2204498375
O -5.6692693214 3.6303827600 1.5655108735
H -5.9194301161 2.0942304454 -0.7018525660
H -4.1778617646 3.6595825351 -0.2409430297
H -6.0714883343 3.8151576872 2.4371223626
