106
# extracted from Terachem optimization
Co -0.0345361390 -0.4790397990 -0.1756741886
N 0.2339288500 1.4516873944 -0.5374659861
C 1.4410170603 1.9299345904 -0.5505690597
N 1.5295510232 3.2739874877 -0.6939903548
C 0.1814018167 3.8371563460 -0.8755377642
C -0.7053148033 2.5572002030 -0.7848762744
H -1.4324760143 2.6196345712 0.0253377202
H -1.2592465023 2.3797801855 -1.7077871325
H 0.0907177247 4.3118792052 -1.8567704610
H 2.3747894222 3.7542109042 -0.9675981324
N 2.3486901648 -0.2361107656 -0.4690997453
C 2.5902357984 1.0187446466 -0.3754615166
C 4.0107889173 1.4020112897 -0.0495962734
C 4.6328934684 0.0244447176 0.3126321571
C 3.5935587079 -0.9874365008 -0.2525415309
H 3.3942193783 -1.8326339690 0.4126334205
H 3.9077479837 -1.4025160994 -1.2189351719
H 5.6118588421 -0.1037948739 -0.1541053206
H 4.5055323154 1.8599512480 -0.9164035204
H 4.0517967604 2.1283511448 0.7704597807
C 4.7942334109 -0.1660207672 1.8343348486
O 3.5280515078 -0.0986417121 2.4503209807
C 5.7335626287 0.8637417773 2.4567595265
O 5.3922204401 1.6138751660 3.3452869798
O 6.9607939607 0.8280412658 1.9148473524
H 5.2509430584 -1.1555143282 2.0015114370
H 3.5840573032 0.4304258576 3.2734349991
H 7.5155422167 1.4841073448 2.3815072878
C -0.1427553654 4.8876085446 0.1931217625
O -0.0445293474 4.2833496236 1.4740353584
C -1.5552039338 5.4472716945 -0.0239802920
O -2.2856953762 5.1876150398 -0.9553831758
O -1.8830154109 6.2714663060 0.9879366127
H 0.5658541447 5.7269054400 0.1047169223
H -0.2505878258 4.9632101029 2.1373421517
H -2.7798818855 6.6232269407 0.8233779721
N -0.0329642174 -2.3613303452 0.4131100540
C 0.0874882788 -2.5194545268 1.6976390051
N 0.0400563056 -3.7970960867 2.1450863815
C 0.0943527152 -4.6999210385 0.9748219336
C -0.1103837706 -3.6927675670 -0.2044801952
H 0.6634663096 -3.7924462050 -0.9696234819
H -1.0844901685 -3.8314698424 -0.6824501310
H -0.7204871630 -5.4252931301 1.0188108585
H 0.4522250144 -4.0638353713 3.0302637298
N 0.1926800122 -0.2137489451 1.7909752544
C 0.2158677376 -1.2916785256 2.4950472872
C 0.4273690665 -1.0943285525 3.9664093768
C 0.1876380742 0.4334728564 4.0975528309
C 0.4123823313 0.9585552641 2.6545961389
H 1.4452269073 1.2864652401 2.4977986618
H -0.2520006011 1.7754869109 2.3669046981
H -0.8559665959 0.6088461565 4.3780030858
H -0.2438798201 -1.6997182588 4.5842397915
H 1.4642043180 -1.3505149922 4.2240303300
C 1.0758770257 1.1295092318 5.1433543789
O 2.4418710830 0.8905434233 4.8792254494
C 0.7753940377 0.6742970788 6.5728266220
O 1.6464677986 0.2845156725 7.3189847908
O -0.5212459204 0.7816231404 6.8947158383
H 0.8625212264 2.2105203063 5.1078067931
H 2.8668039183 0.7196346996 5.7439136488
H -0.6205204944 0.5236586353 7.8329223661
C 1.4161771876 -5.4730736369 0.9220291184
O 2.4901238183 -4.5447301881 0.8950651965
C 1.4360360491 -6.3911333132 -0.3056748182
O 0.4907325300 -6.6105854077 -1.0259393382
O 2.6646105276 -6.9201495693 -0.4649291180
H 1.4862890238 -6.1203591771 1.8130878765
H 3.3120330502 -5.0515705634 0.7817342492
H 2.6483657994 -7.5108098988 -1.2438823706
N -2.3019629371 -0.1838019676 -0.3371165892
C -2.6267135229 -0.3177291202 -1.5809940654
N -3.9461730678 -0.1548887221 -1.8949091656
C -4.6282629351 0.3943260146 -0.7051840806
C -3.5344781871 0.1677048842 0.3891973755
H -3.3697078766 1.0578948176 1.0015253855
H -3.8129354772 -0.6527449336 1.0587379761
H -5.5331220974 -0.1768811097 -0.4895783104
H -4.2307050706 0.1295283673 -2.8242108828
N -0.3868135664 -0.8289801296 -2.1141437192
C -1.5836487191 -0.6805060680 -2.5582407187
C -1.7516552152 -0.9092400190 -4.0332367899
C -0.2804360661 -0.9861568857 -4.5236411486
C 0.5274196741 -1.1806025669 -3.2111634789
H 1.4159583993 -0.5464851231 -3.1548551294
H 0.8546872201 -2.2174425915 -3.0682357708
H -0.1264388128 -1.8238105543 -5.2076771128
H -2.3048459060 -1.8401154182 -4.2118181288
H -2.3152647569 -0.0986719546 -4.5090432825
C 0.1441313456 0.3128235710 -5.2397577682
O -0.0950295043 1.4280045129 -4.4047937623
C -0.6086564418 0.5153001552 -6.5547538058
O -1.3204029693 1.4808061077 -6.7410096527
O -0.3915037698 -0.4645236488 -7.4372214128
H 1.2154955501 0.2408257207 -5.4839015864
H -0.6057435220 2.0607602698 -4.9489308750
H -0.8809321427 -0.2541013464 -8.2575003590
C -5.0238349161 1.8646557392 -0.8998854298
O -3.8486966530 2.6134284032 -1.1526311870
C -5.7742418714 2.3669904107 0.3386555030
O -6.2012427462 1.6658435072 1.2252355191
O -5.9058827867 3.7099113560 0.2998616778
H -5.7268829248 1.9378655512 -1.7484310837
H -4.0563418731 3.5630411306 -1.1918565454
H -6.4256048867 3.9790322342 1.0828514005
