151
# extracted from Terachem optimization
Cr -0.2208338285 0.0057133688 -0.1802342802
N 0.3927447016 2.0816753111 -0.1256925214
C -0.4573153712 3.0521670160 -0.3522842544
S -0.1870125961 4.7404284382 -0.4583277884
C 1.6840417103 4.8622012764 -0.5811785257
C 2.2812130720 3.6617498465 0.1052224591
C 1.7253880151 2.4494101641 0.2333455294
H 1.9064742673 4.8229994268 -1.6508757737
H -1.5005496208 2.7924953322 -0.4827871713
H 2.2888087079 1.6507290219 0.6929193479
H 3.2911212224 3.7924071015 0.4795155633
C 2.1441139507 6.2825803772 -0.0755851908
C 1.4087920422 7.3495333222 -0.9163780248
C 1.8502676930 6.4800605952 1.4201450158
C 3.6940296333 6.3713148564 -0.3374133406
O 4.4650554097 5.5755112823 0.5204763640
O 3.9311833306 5.9776603590 -1.6270741868
Cl 4.2921096743 8.1232299657 -0.0782413091
H 0.3248045688 7.2937606597 -0.7658400266
H 1.7142429591 8.3524279613 -0.6159783142
H 1.6209644711 7.2360375492 -1.9833552424
H 2.3130125146 5.7061534840 2.0410428750
H 2.2192773080 7.4546687356 1.7501079252
H 0.7719228936 6.4624692445 1.6076242766
H 4.7493594603 6.1032788956 1.2851551308
H 4.8923249771 6.0122535423 -1.7854759775
N 1.8279773661 -0.5349229279 -0.1796145154
C 2.5507662284 -0.3897986674 -1.2602637984
S 4.2019107817 -0.7447759999 -1.5316914841
C 4.7269066520 -1.6989316529 0.0045812023
C 3.7410669161 -1.4257472833 1.1106972211
C 2.4882876349 -0.9592865751 1.0131906531
H 4.6826748143 -2.7524574653 -0.2865320697
H 2.0804313388 0.0527311386 -2.1317782867
H 1.8887806100 -0.8462684141 1.9035193884
H 4.0951130476 -1.6816801790 2.1037244942
C 6.2418578364 -1.3768895066 0.3249141160
C 7.0567882763 -1.4961540423 -0.9826945175
C 6.3997613956 0.0259441189 0.9302597234
C 6.7300416654 -2.4834793725 1.3278701189
O 6.0787313567 -2.3187310884 2.5452930830
O 6.4984855566 -3.7169372138 0.7423575625
Cl 8.5478884974 -2.3328569508 1.6676980162
H 6.8072245923 -0.6842132423 -1.6739089585
H 8.1240670729 -1.4071916740 -0.7736109205
H 6.8887626818 -2.4548348595 -1.4807420901
H 5.8603031923 0.1310839951 1.8746717409
H 7.4546515441 0.2385996590 1.1194097843
H 6.0304672967 0.7828940299 0.2293011755
H 6.5028983042 -2.8789160096 3.2189521443
H 7.0582833355 -4.3998413844 1.1506941710
N -0.7771654611 -2.0836167526 -0.2351341374
C 0.1312363295 -3.0237515957 -0.1886020146
S -0.0298395201 -4.7244899952 -0.2872681445
C -1.8641939993 -5.0286085936 -0.5782281712
C -2.6181389846 -3.7320681703 -0.4547218426
C -2.1458254962 -2.4836975895 -0.3308572937
H -1.9279532336 -5.3836894802 -1.6102708085
H 1.1665451320 -2.7325762773 -0.0523600063
H -2.8295718908 -1.6510693444 -0.2694694542
H -3.6972979248 -3.8454749653 -0.4907648350
C -2.3546685896 -6.2207720091 0.3419372342
C -1.4022233361 -7.4180389805 0.1262194405
C -2.3842522572 -5.8144545646 1.8220408139
C -3.7911230718 -6.6144105273 -0.1524486126
O -4.6950051763 -5.6234602350 0.2228854678
O -3.7287535798 -6.8104892963 -1.5211483653
Cl -4.3723912726 -8.1869379342 0.6416866873
H -0.3842930441 -7.1755361544 0.4490244894
H -1.7212983195 -8.2703955144 0.7280072022
H -1.3778168326 -7.7324077857 -0.9207992867
H -3.0464918024 -4.9629342232 2.0003301391
H -2.7369670240 -6.6476125194 2.4350473174
H -1.3749855018 -5.5589496387 2.1635449588
H -5.6029179489 -5.9640125347 0.1379648322
H -4.5017012309 -7.3146978802 -1.8300051401
N -2.3194934975 0.6741505246 -0.2203602032
C -2.9713772803 0.7561743292 -1.3528534465
S -4.5478193702 1.3529809208 -1.6652530383
C -5.3284655076 1.4791439100 0.0289026360
C -4.2346612825 1.5806984197 1.0551023104
C -2.9529445686 1.2015186088 0.9443286801
H -5.8562255988 2.4353620011 -0.0053270827
H -2.4583099632 0.4456827841 -2.2549743330
H -2.2877803507 1.3334375295 1.7837553067
H -4.5447048572 1.9949452557 2.0079392978
C -6.4326660060 0.3658187507 0.2438203283
C -7.4945221762 0.5311388074 -0.8630567935
C -5.8357278024 -1.0475344981 0.2140495447
C -7.0829529998 0.6526317235 1.6405249120
O -6.1927489548 0.2726549708 2.6366313951
O -7.4246984730 1.9944016950 1.6882570177
Cl -8.6303551982 -0.3485653642 1.8859839686
H -7.0411076170 0.4452313336 -1.8558001915
H -8.2497029880 -0.2530893920 -0.7883331214
H -7.9971905051 1.4990284887 -0.7892355672
H -4.9955470690 -1.1513200451 0.9069711956
H -6.5941069219 -1.7813930496 0.4990436198
H -5.5072558223 -1.2950146711 -0.8017528107
H -6.6386612246 0.3304832526 3.5003483663
H -8.1291661692 2.1494437378 2.3412298301
N -0.3510922144 -0.0632382966 1.9488476770
C -0.9962534201 -1.0432592193 2.5274217537
S -1.3399182089 -1.2971141463 4.1841922894
C -0.2890003200 -0.0341027645 5.0813155300
C 0.0970634974 1.0483624169 4.1122186359
C 0.0969047659 1.0110125192 2.7718415686
H -0.9731077536 0.3846888628 5.8228255326
H -1.4367002234 -1.8103687499 1.9024043404
H 0.4253104503 1.8733713747 2.2141798674
H 0.4503300286 1.9624657238 4.5762125218
C 0.8866123016 -0.7185070752 5.8937988100
C 0.2913377940 -1.8413477479 6.7683978316
C 1.9701243912 -1.2735859896 4.9594648653
C 1.4876775598 0.3940154905 6.8229280291
O 2.1956974153 1.3019655778 6.0442388700
O 0.4482424752 0.9691019694 7.5322843375
Cl 2.7002831135 -0.3219462190 8.0403140952
H -0.1803927485 -2.6123051516 6.1516706304
H 1.0797445642 -2.3318835600 7.3417173039
H -0.4480370119 -1.4515360237 7.4733655520
H 2.3690078249 -0.4953788323 4.3036615105
H 2.8007303122 -1.6806450984 5.5417298692
H 1.5645294539 -2.0909858497 4.3515136298
H 2.6916400339 1.9037912269 6.6270566690
H 0.7799316891 1.4218394207 8.3271805776
N -0.2140909048 -0.0155205206 -2.3756056314
C -0.5029408440 -1.1004894443 -3.0479470451
S -0.4966629423 -1.4021612067 -4.7326497492
C 0.2101984111 0.1620470172 -5.5015851190
C 0.3144718629 1.2358065899 -4.4526870813
C 0.1470381778 1.1452227701 -3.1256935554
H 1.2142830701 -0.1180456867 -5.8313944376
H -0.8295234738 -1.9680990725 -2.4875694656
H 0.2963019507 2.0162713790 -2.5081211326
H 0.5853776197 2.2104211563 -4.8463678101
C -0.6122618622 0.5310050890 -6.8046121059
C -0.6916207010 -0.7258764721 -7.6979490294
C -2.0197147439 1.0363073572 -6.4562249023
C 0.2064214071 1.6420240461 -7.5539546468
O 0.0918363207 2.8400251016 -6.8555967151
O 1.5135382179 1.2002015568 -7.6771271729
Cl -0.4706603689 1.9513251844 -9.2532800595
H -1.2353264658 -1.5330695009 -7.1958033939
H -1.2436397227 -0.5058364931 -8.6129202696
H 0.3020807217 -1.0862998494 -7.9783314182
H -1.9916595553 1.9055796170 -5.7940753644
H -2.5537378074 1.3231369769 -7.3655968613
H -2.5977045547 0.2407922482 -5.9724799380
H 0.4216628407 3.5701977571 -7.4086013550
H 1.9684337406 1.6778617077 -8.3924389622
