175
# extracted from Terachem optimization
Cr 0.2868727413 0.0643474427 -0.0206915997
N 0.6748682262 2.0410633389 -0.2525079659
C 1.9129198333 2.4605610324 -0.1143921564
C 2.0592122310 3.8751231684 -0.3019230491
C 0.8191140997 4.3666002309 -0.6034538421
C -0.1395329364 3.2102192450 -0.5931130287
H -0.9426804132 3.3670545978 0.1369495441
H -0.6297553190 3.0673436568 -1.5637983778
H 2.9879511213 4.4173090495 -0.1904354481
O 2.3738149191 0.1383011420 0.0501991046
C 2.9948520147 1.4665300412 0.2016932370
O 3.4390478893 1.6844001282 1.4894394486
C 4.4806024167 0.7505420447 1.9713698328
C 3.9125993937 -0.6630857606 1.7859424154
C 3.3634566782 -0.9092114260 0.3917816477
H 4.5056121431 0.9545784994 3.0393598831
H 3.8140026478 1.4973685517 -0.5228952889
H 2.8111619540 -1.8462276696 0.3221455933
H 4.1364771215 -0.8687962072 -0.3799587436
H 4.6705026430 -1.4045572478 2.0346086835
H 3.0962421955 -0.7952531010 2.5037377941
C 5.8914283228 1.1449890148 1.4268589683
O 5.8069314430 1.0759053096 -0.0144885018
C 6.1360171895 2.6101768350 1.8332474224
C 7.0404166264 0.1745106885 1.9610104726
N 6.6516399762 -0.2599151727 3.3230078031
C 7.1949219376 -1.0820689514 1.0787573344
C 8.4177857263 0.8799550426 1.9591642683
H 6.6512820490 1.3864410783 -0.3816500295
H 6.2772322270 2.7167855869 2.9142715511
H 7.0286624516 3.0078693968 1.3439110873
H 5.2840655929 3.2295624111 1.5452141737
H 7.2458725391 -1.0396186369 3.6047523529
H 6.8558741100 0.4815704199 3.9944317441
H 7.5179104464 -0.8190337306 0.0692697210
H 7.9698940697 -1.7266867867 1.5080747488
H 6.2864715304 -1.6811213217 0.9905426413
H 8.7013294042 1.2579627212 0.9679275885
H 8.4600010708 1.7162484884 2.6626021703
H 9.1895672470 0.1622982635 2.2556175873
C 0.3733230381 5.7639028775 -0.9043820505
O -1.0570750342 5.6757898421 -0.8908701548
C 0.8543324112 6.7203726752 0.2045020130
C 0.8977587341 6.2226202497 -2.3792015322
N 2.3362149123 6.3564301068 -2.4781927527
C 0.4456482383 5.1946285609 -3.4294774667
C 0.2847984888 7.5945042628 -2.7247488069
H -1.4177702228 6.5686313513 -1.0092581592
H 1.9448566465 6.7886114433 0.2405766994
H 0.4591310302 7.7268275340 0.0393798959
H 0.4969018730 6.3764547769 1.1792715083
H 2.8521696387 5.4911799705 -2.3584077390
H 2.7332106096 7.0907264882 -1.9013255186
H -0.6334218204 5.0245015584 -3.3793060567
H 0.6973832032 5.5649028816 -4.4265168358
H 0.9622116880 4.2338925832 -3.2987436050
H -0.8097413757 7.5696959041 -2.7399721848
H 0.6093992108 8.3826007375 -2.0382089569
H 0.6208401185 7.8771734153 -3.7253228059
N 0.1190304876 -1.9205599293 0.4120247083
C -0.0005079345 -2.2781293259 1.6703706397
C -0.0200110289 -3.6995424598 1.8628828280
C 0.0717554894 -4.2676429445 0.6217808452
C 0.1712558142 -3.1514923712 -0.3798566465
H 1.0988072356 -3.2194890656 -0.9617121181
H -0.6460732988 -3.1815043684 -1.1089942751
H -0.0710131858 -4.1906887759 2.8246049647
O -0.0004138679 0.0714025333 1.9741888118
C -0.1497629837 -1.2056800844 2.7086303055
O 0.8115802345 -1.3339771307 3.6819177957
C 0.7695542404 -0.3131081290 4.7528491367
C 0.8684500086 1.0448285383 4.0468097707
C -0.1270774977 1.2122329199 2.9087227996
H 1.7076348338 -0.4783225742 5.2770639451
H -1.1572502825 -1.1896816498 3.1400900243
H 0.0942231617 2.0912975060 2.3074269013
H -1.1649960137 1.2312036335 3.2494985357
H 0.7565374142 1.8571356955 4.7637168829
H 1.8765153682 1.1378395647 3.6296968581
C -0.3613319229 -0.6117739068 5.7862192355
O -1.6127579946 -0.5279875104 5.0667571947
C -0.1644902000 -2.0604694644 6.2725930267
C -0.3579984370 0.4241358329 7.0029972311
N 1.0503639775 0.8006737610 7.2565286586
C -1.1498090779 1.7097542676 6.6797399136
C -1.0252395769 -0.1869856417 8.2589654585
H -2.3264840797 -0.7774182995 5.6773769938
H 0.7332022718 -2.1623919785 6.8919442603
H -1.0165239457 -2.3917106713 6.8715786924
H -0.0599882603 -2.7412132457 5.4254738264
H 1.0731246327 1.6000739073 7.8894863619
H 1.5261896908 0.0516855908 7.7617673408
H -2.2057481503 1.4902639872 6.5078808903
H -1.0947101950 2.3874183584 7.5387068119
H -0.7808849898 2.2583159864 5.8113103144
H -2.0539123632 -0.5228037644 8.0719948216
H -0.4637078689 -1.0329951289 8.6650841811
H -1.0791929271 0.5755559788 9.0425177873
C 0.0744205966 -5.7033152929 0.2018090399
O 0.4170995213 -5.6501518425 -1.1887766323
C 1.1498456097 -6.4786608329 0.9865330469
C -1.4117051514 -6.3553966177 0.3902479551
N -1.8222851256 -6.5019995933 1.7694460913
C -2.4516136017 -5.4742571348 -0.3226606424
C -1.4196439655 -7.7586946183 -0.2479305470
H 0.5449365191 -6.5574227210 -1.5073584482
H 0.9301880097 -6.5057546882 2.0570441503
H 1.2163849835 -7.5104039599 0.6292812057
H 2.1286513583 -6.0110317748 0.8465468587
H -1.9453309970 -5.6307232879 2.2740111043
H -1.2679682340 -7.1563835092 2.3117043270
H -2.1617630190 -5.2816850432 -1.3597536181
H -3.4200208966 -5.9806928608 -0.3175175866
H -2.5845250362 -4.5141809473 0.1940106599
H -1.1962860742 -7.7276575636 -1.3188034121
H -0.7188919139 -8.4451466525 0.2379983014
H -2.4200569449 -8.1834591379 -0.1330714928
N -1.6631430038 0.3076987507 -0.3923404182
C -2.0840890485 0.1108448214 -1.6203897353
C -3.4996359958 0.2879107642 -1.7726693314
C -3.9926821934 0.6175621393 -0.5414670878
C -2.8357241818 0.6514841005 0.4173184882
H -2.7299956092 1.6483382767 0.8625773105
H -2.9683898873 -0.0480283053 1.2491403291
H -4.0301054319 0.2167799139 -2.7119133012
O 0.2236674723 -0.2846512875 -2.0143278901
C -1.0885212801 -0.2259916099 -2.6929056372
O -1.1298852314 0.7759869673 -3.6382668201
C -0.1455456309 0.6814930085 -4.7352827627
C 1.2262755765 0.6427896905 -4.0542913134
C 1.3294619633 -0.4348080343 -2.9868156298
H -0.2414091542 1.6480998733 -5.2243432408
H -1.2453164895 -1.2143376501 -3.1369753756
H 2.2309926522 -0.3371800425 -2.3847520118
H 1.2528898012 -1.4423766033 -3.4021149817
H 2.0174205011 0.5241809766 -4.7937245414
H 1.3819719607 1.6216022960 -3.5846825503
C -0.5669609270 -0.3818655130 -5.7984039496
O -0.6188569393 -1.6546013177 -5.1159400565
C -1.9909333292 -0.0147813909 -6.2594853689
C 0.4544596223 -0.4518511081 -7.0216273520
N 0.9673838968 0.9185160076 -7.2442770999
C 1.6580436063 -1.3712800350 -6.7236119671
C -0.2297807974 -1.0231373989 -8.2870330816
H -0.9350841624 -2.3202107200 -5.7493367729
H -2.0050812225 0.9076128134 -6.8501091879
H -2.4191119921 -0.8081507961 -6.8773979166
H -2.6433853080 0.1322222036 -5.3962568681
H 1.7624671891 0.8792693200 -7.8818429035
H 0.2672498571 1.4799631272 -7.7310933232
H 1.3426874598 -2.4091288262 -6.5952240853
H 2.3454930108 -1.3442005418 -7.5759552848
H 2.2281738011 -1.0852594059 -5.8377631179
H -0.6866518048 -2.0071842436 -8.1169177071
H -1.0031221301 -0.3573599718 -8.6804905031
H 0.5196750673 -1.1554807196 -9.0740670544
C -5.3886486334 0.9337340197 -0.1038668020
O -5.2116113983 1.5232092299 1.1910968133
C -6.0273496259 1.9491463448 -1.0697606914
C -6.2692347716 -0.4364043916 0.0135042844
N -6.5034630854 -1.0945096456 -1.2558297724
C -5.5471979696 -1.4325501095 0.9366583040
C -7.6419173677 -0.0935775433 0.6209636680
H -6.0626983897 1.8871938935 1.4818980138
H -6.1843394319 1.5184396241 -2.0620556262
H -6.9984518713 2.2786747776 -0.6892916462
H -5.3886727648 2.8311061670 -1.1713729737
H -5.6610412281 -1.3822338382 -1.7432811604
H -7.1173466435 -0.5860662243 -1.8844200251
H -5.3087931256 -0.9750692912 1.9012658424
H -6.1933247983 -2.2972561073 1.1060453106
H -4.6209544720 -1.8054574212 0.4786489080
H -7.5507715883 0.3534800178 1.6156274383
H -8.2263344438 0.5794173346 -0.0143543683
H -8.2145942008 -1.0185439034 0.7277371746
