160
# extracted from Terachem optimization
Cr 0.7484298576 0.3717553577 0.5266998720
N 1.0827044541 2.3700084439 0.8814921948
C 2.3289183077 2.7360528066 1.1011177800
C 2.4696089133 4.1667270905 1.2894699232
C 1.2381969258 4.7137821111 1.1489137692
C 0.2727365025 3.5881590906 0.8839340621
H -0.4941039924 3.5457457421 1.6687068789
H -0.2582971710 3.6782237072 -0.0726402316
H 3.3767230824 4.7016866153 1.5337472149
N 2.8313142329 0.4477844217 0.8281608133
C 3.3378320450 1.6820034435 1.1080190681
C 4.6823367457 1.8884886387 1.4196721274
C 5.5695334413 0.8083135721 1.4589287078
C 5.0336672970 -0.4565097909 1.1769209197
C 3.6849460039 -0.5916764491 0.8679980969
H 5.0101087089 2.8863383543 1.6816710756
H 3.2502470324 -1.5638848717 0.6618519177
H 5.6650162782 -1.3329260969 1.2511171386
C 7.0381336122 0.9578429657 1.8884957525
N 7.1616989073 2.1942509264 2.6819313642
N 7.3567852415 -0.1984560752 2.7211986174
C 8.0435777991 0.9347305492 0.6560142576
C 8.0464864571 -0.3939688186 -0.1143278198
C 7.8124820068 2.1012549966 -0.3156361164
O 9.3068112657 1.1077584707 1.3196907236
H 8.1020186522 2.1981655820 3.0761386488
H 7.1295602181 3.0217691299 2.0862658613
H 8.3679171259 -0.2301712044 2.8489739572
H 6.9369702043 -0.0621154961 3.6402809371
H 7.1089314582 -0.5547089144 -0.6561723682
H 8.8469501208 -0.3753446473 -0.8644802017
H 8.2180434352 -1.2405950353 0.5537742902
H 7.9097108240 3.0708705220 0.1819082038
H 8.5687813945 2.0703633931 -1.1076100105
H 6.8305109103 2.0441623542 -0.7990462484
H 10.0181510444 0.9547682629 0.6773763181
C 0.8556120417 6.1716086188 1.3395231041
N -0.5277625177 6.1989106180 1.8605231490
N 1.7725384654 6.7458020823 2.3175641068
C 1.0229465973 7.0181605100 0.0015880176
C 2.4810729141 7.1126246915 -0.4651641977
C 0.1359140832 6.5043028869 -1.1410469147
O 0.5559865049 8.3120712844 0.4168656369
H -0.7652954380 7.1760459025 2.0325548360
H -1.1944107926 5.8846366702 1.1540219359
H 1.6475076027 7.7577711932 2.3152069851
H 1.5107499751 6.4097955160 3.2435249427
H 2.8708572354 6.1356418705 -0.7672656923
H 2.5464455888 7.7710030947 -1.3410539882
H 3.1211504733 7.5139579413 0.3224899262
H -0.9202343682 6.4794984913 -0.8557634172
H 0.2213543894 7.1787690940 -2.0000735595
H 0.4422641972 5.5082162961 -1.4804378158
H 0.7966484519 8.9614972109 -0.2629544911
N 0.5069258711 -1.6528102329 0.2708209355
C 0.4252712642 -2.3869005247 1.3618110330
C 0.2444170810 -3.7974068795 1.0768028038
C 0.1921832684 -3.9338615954 -0.2701476171
C 0.3539434662 -2.5596953274 -0.8671236850
H 1.2366138216 -2.5180603643 -1.5188820817
H -0.5028957432 -2.2398040590 -1.4750842274
H 0.2076023155 -4.6025768416 1.7976274545
N 0.6960347220 -0.3434960845 2.5066260560
C 0.5257376356 -1.6893513869 2.6382117156
C 0.4869207930 -2.3255156361 3.8791706874
C 0.6258116859 -1.5825974518 5.0554126584
C 0.8342915455 -0.2042499977 4.9059824784
C 0.8584628972 0.3661622850 3.6370703638
H 0.3924172042 -3.4031348621 3.9154033822
H 1.0245396737 1.4296207338 3.5032403680
H 1.0168453633 0.4087682643 5.7797881845
C 0.6325242036 -2.2398658582 6.4456201595
N 0.9721202263 -3.6654731629 6.2802738366
N 1.6592130398 -1.5698495865 7.2357026135
C -0.7504115945 -2.0412387165 7.2091866251
C -1.0610294572 -0.5764630696 7.5464755647
C -1.9330752105 -2.6670819202 6.4542630772
O -0.5154070106 -2.7761133231 8.4211081584
H 1.1411748470 -4.0397077056 7.2133714911
H 0.1736493574 -4.1972340239 5.9334682494
H 1.5442922846 -1.8477047136 8.2100064892
H 2.5744051238 -1.8988103473 6.9299063367
H -1.2775569720 0.0118328206 6.6491357981
H -1.9557289400 -0.5295658541 8.1803562452
H -0.2318891362 -0.1087222390 8.0809346679
H -1.8022081028 -3.7445935939 6.3162513768
H -2.8521256055 -2.5280791531 7.0341220429
H -2.0876861933 -2.1993489640 5.4752599320
H -1.2195380283 -2.5629352984 9.0540932994
C 0.1214735572 -5.2300261537 -1.0573706355
N 0.8460993997 -5.0123185313 -2.3284334932
N 0.7851208920 -6.2631737559 -0.2712784708
C -1.3752576654 -5.7250251239 -1.2862248259
C -2.0857514928 -6.0807199809 0.0261434763
C -2.2172320861 -4.7234593474 -2.0894943911
O -1.1692070365 -6.9085285419 -2.0727850791
H 0.8494689336 -5.9012627087 -2.8291015031
H 0.3385693418 -4.3664785460 -2.9348332314
H 0.5998160808 -7.1646425692 -0.7104162241
H 1.7913832788 -6.1062258598 -0.3110164894
H -2.2547678209 -5.1917396722 0.6418178649
H -3.0687690528 -6.5170161716 -0.1917696450
H -1.4998698218 -6.7967344948 0.6046004751
H -1.7562515755 -4.4847975551 -3.0528036686
H -3.1992001257 -5.1599045652 -2.3031245357
H -2.3887400221 -3.7948526085 -1.5323934883
H -1.9963209635 -7.4155457419 -2.0980170990
N -1.2680630523 0.6621349280 0.2683839153
C -1.6468108011 0.9923140980 -0.9480980921
C -3.0784535149 1.2128334192 -1.0480540054
C -3.6086312697 0.9875283901 0.1776865665
C -2.4710833150 0.6275926970 1.0986717108
H -2.3868925114 1.3541979852 1.9181130685
H -2.5678625553 -0.3623934597 1.5627239903
H -3.6258710810 1.5386960532 -1.9215470001
N 0.6428009181 0.8144881992 -1.5121150505
C -0.6115583217 1.0812927212 -1.9739695017
C -0.8569720028 1.4509292031 -3.2977427334
C 0.2003021782 1.5604612180 -4.2068899427
C 1.4846603884 1.2839751692 -3.7153347433
C 1.6603042640 0.9185531579 -2.3852803641
H -1.8684990730 1.6990144439 -3.5926947266
H 2.6479671878 0.7209309338 -1.9817226299
H 2.3437937271 1.4092964780 -4.3623537123
C 0.0020201432 2.0529239742 -5.6503798418
N -1.2489248630 2.8325883674 -5.7008986195
N 1.1358977954 2.9164923796 -5.9659809650
C 0.0137292428 0.8663634710 -6.7080292740
C 1.3514115040 0.1146984028 -6.7742531173
C -1.1353287102 -0.1295575814 -6.4920653007
O -0.1979222280 1.5792043669 -7.9379761179
H -1.2835146816 3.2803760123 -6.6163237712
H -2.0674739464 2.2242645156 -5.6811064071
H 1.1354212527 3.0877444363 -6.9711485390
H 0.9995715663 3.8145100507 -5.5029758115
H 1.5450716191 -0.4572739153 -5.8611921560
H 1.3221270506 -0.6064402738 -7.6006271944
H 2.1836859917 0.8012603323 -6.9432220054
H -2.1128060505 0.3577749890 -6.5542227048
H -1.1073177239 -0.8925038545 -7.2776598920
H -1.0536893354 -0.6469708482 -5.5293504981
H -0.0475591240 0.9710702627 -8.6793023676
C -5.0571296678 1.1816294310 0.5937534756
N -5.0521933071 1.6582818868 1.9930686177
N -5.6368889266 2.1967153933 -0.2790519218
C -5.9249157555 -0.1383446803 0.3985366036
C -6.0431987452 -0.5593249371 -1.0721348495
C -5.4173627754 -1.3151518430 1.2436624941
O -7.2068470387 0.2807834960 0.8934186389
H -6.0231441319 1.8263696662 2.2580046095
H -4.7252133587 0.9305414802 2.6298728257
H -6.6472117576 2.1952411876 -0.1413037474
H -5.2932388939 3.1096091589 0.0166502371
H -5.0733603520 -0.8552444190 -1.4842097923
H -6.7098715776 -1.4273121199 -1.1560267945
H -6.4463680193 0.2512612608 -1.6816307555
H -5.3596813969 -1.0585045431 2.3058421351
H -6.1135995712 -2.1560010568 1.1521157438
H -4.4372057639 -1.6678077687 0.9030463784
H -7.8677003438 -0.3868976413 0.6498696935
