118
# extracted from Terachem optimization
Cr 0.2003493644 -0.1244688295 -0.1365915276
O 0.6769064699 2.0751585004 -0.0825214649
C 2.0656348286 2.3943006930 0.0302177695
S 2.2320597817 3.6719298957 1.3973258548
C 0.5230231418 4.0921889834 1.0655794905
C -0.0888707117 3.1786120650 0.3089274219
H -1.1142787923 3.1578577806 -0.0273245198
H 2.3761825600 2.8783283155 -0.9069112331
N 2.2592439921 -0.0254843459 0.1178179929
C 2.8653774015 1.1299308880 0.2444238988
N 4.1675260802 1.3168894593 0.5134827506
C 5.1137667581 0.2087995653 0.6899578902
C 4.5610363161 -1.0137856691 -0.0424783348
C 3.0931604192 -1.2249534448 0.3345021947
H 5.1992778685 -0.0223239263 1.7619320196
H 4.6451549215 -0.8584412429 -1.1262860451
H 5.1552064226 -1.8942710775 0.2103373072
H 4.5940422619 2.2555443476 0.5583073141
H 3.0087498732 -1.5194600495 1.3902770265
H 2.6680707812 -2.0431557659 -0.2499956586
C 6.5168790940 0.6242980517 0.2082010765
O 7.3273122463 -0.5131759838 0.4566482676
C 7.0814546425 1.8530360871 0.9467775247
N 6.3269107644 3.0794867206 0.6172119703
H 6.4599295047 0.8459668854 -0.8724816032
H 8.2143868647 -0.3540131392 0.0971099618
H 7.0052715102 1.6775613468 2.0252624077
H 8.1549612534 1.9355965076 0.7136726334
H 6.5374988907 3.8111154482 1.2934017456
H 6.6204077572 3.4395510183 -0.2902881096
C -0.1502505798 5.3095959403 1.6483452305
O -1.2745329140 5.5844932268 0.8239141170
C 0.8053454569 6.5092048823 1.7630419283
N 1.8671288987 6.1621517041 2.7050957912
H -0.4808513023 5.0547058836 2.6715044528
H -1.8132889174 6.2579112634 1.2693062693
H 1.2441307269 6.7114107135 0.7812389295
H 0.2182871332 7.3975139880 2.0485274559
H 2.6904801650 6.7421790105 2.5687646951
H 1.5652328101 6.2887344975 3.6690858552
O -0.3991498570 -2.2012048119 0.0067325662
C -1.0839017272 -2.4391264540 1.2640479352
S -0.9151312119 -4.2593081303 1.6716057249
C 0.2359529070 -4.4239935743 0.3175586453
C 0.3480633235 -3.3128508577 -0.4026266194
H 0.9190373965 -3.1484031920 -1.3026978281
H -2.1397952093 -2.2196009886 1.0926594023
N -0.1074530904 -0.2954533199 1.8855298967
C -0.5626982815 -1.4527761616 2.3123734014
N -0.6801201460 -1.8189236662 3.5911098332
C -0.3466770553 -0.9338152581 4.7163235850
C -0.4089199630 0.5144262727 4.2290108817
C 0.3625748727 0.6489298735 2.9158015677
H 0.6785134378 -1.1568608790 5.0460694126
H -1.4572887150 0.8040973552 4.0773605402
H 0.0086220656 1.1758784814 4.9907598915
H -0.9985644591 -2.7599164203 3.8670198172
H 1.4357140041 0.4854182528 3.0855379706
H 0.2593870620 1.6548725913 2.5070172360
C -1.2773975129 -1.2185021820 5.9117499381
O -0.8609230997 -0.3007612404 6.9108522752
C -1.1732455654 -2.6613269661 6.4417531593
N -1.6727305741 -3.6444220036 5.4605786973
H -2.3167535780 -1.0191007451 5.5958556894
H -1.4503790335 -0.3816311831 7.6774210175
H -0.1187923668 -2.8780864421 6.6442684384
H -1.6992493267 -2.7150915215 7.4084550288
H -1.3473926758 -4.5779804048 5.7034972968
H -2.6910543240 -3.6842252298 5.4860266996
C 0.9733534017 -5.7076659112 0.0423776846
O 1.5729107737 -5.5674624562 -1.2380533238
C 0.0439216383 -6.9325084700 0.1115273827
N -0.4921418562 -7.0438085157 1.4674366244
H 1.7483522670 -5.8254443937 0.8206700252
H 2.1587288470 -6.3276634322 -1.3804594474
H -0.7812909991 -6.7846769093 -0.5915599297
H 0.6064534020 -7.8191214778 -0.2241672520
H -1.3574312176 -7.5769486318 1.4820597971
H 0.1628065706 -7.5158078560 2.0874968814
O -2.0257568342 -0.1363918108 -0.4418203927
C -2.2580914704 -0.5440189647 -1.8104918939
S -4.0256957997 -0.1393626313 -2.2009133870
C -3.9789650542 1.0515637871 -0.8687241750
C -2.9107585037 0.8932418730 -0.0896172552
H -2.6461727990 1.4233918637 0.8112921714
H -2.1253093542 -1.6265449014 -1.8406641511
N 0.0162256826 0.2101362710 -2.1669269621
C -1.1802649131 0.0970580552 -2.6984275570
N -1.5147914122 0.4345133353 -3.9442363710
C -0.5457266314 0.9183253270 -4.9405178719
C 0.8593804447 0.5151102105 -4.4895715998
C 1.0447081511 0.8447666767 -3.0064019720
H -0.6038693159 2.0153011817 -4.9842642617
H 1.0044364017 -0.5636510099 -4.6428895623
H 1.6030461213 1.0429384704 -5.0923466217
H -2.4878107430 0.3866267237 -4.2838688421
H 1.0068328120 1.9327165258 -2.8534473809
H 2.0193087439 0.5009362831 -2.6510080220
C -0.9092430418 0.3904981291 -6.3505350259
O 0.0627462936 0.8502454998 -7.2806028223
C -2.2587448904 0.9109880252 -6.8668275206
N -3.3784675213 0.4372197783 -6.0291124997
H -0.9365465675 -0.7111198628 -6.3135964141
H 0.7789051388 0.2016290126 -7.3439633260
H -2.2387245061 2.0059817966 -6.8335406714
H -2.3453249575 0.6251632991 -7.9231892305
H -4.1948211191 1.0280734352 -6.1722078721
H -3.6587763026 -0.4996112357 -6.3171731717
C -5.0647233380 2.0741655405 -0.6747361078
O -4.7791563123 2.7516845927 0.5419592398
C -6.4630878448 1.4283661095 -0.6496465408
N -6.7247344764 0.7899691413 -1.9393511752
H -5.0263815473 2.7744670050 -1.5274166813
H -5.3855399229 3.5052455463 0.6152978247
H -6.4773815323 0.6690307918 0.1381147277
H -7.1993377159 2.2010733447 -0.3725056663
H -7.3972244537 0.0333176964 -1.8497854150
H -7.1053186432 1.4516353120 -2.6122969867
