130
# extracted from Terachem optimization
Cr 0.2764489443 0.1046490087 0.0355533487
O 0.0167165614 2.6820909248 0.0792204480
C 1.3128311598 3.2778202303 -0.1602305588
O 1.5198912649 4.4584447829 0.5253563052
C 1.0515103165 4.4325873789 1.9158320566
C -0.4328145483 4.2253134034 1.8328766918
C -0.8661894469 3.3944792994 0.8866935668
H 1.5597036780 3.6019900235 2.4216303129
H -1.8956816669 3.1752382572 0.6319221382
H -1.1365319203 4.7880844546 2.4326174560
H 1.3565391172 3.5315547461 -1.2248585575
N 2.1929208883 0.9740070131 0.2169470505
C 2.4257947966 2.2427204117 0.1199547654
S 3.9905185666 3.0056846479 0.2388760962
C 5.1802321872 1.6635004038 -0.3338174702
C 4.4948344998 0.2998855088 -0.4727144741
C 3.3479212054 0.1041081062 0.5212043157
H 5.9266086509 1.6378698523 0.4631758160
H 4.1184205495 0.1815919707 -1.4913402235
H 5.2395938264 -0.4851000577 -0.3154074073
H 3.6811140013 0.3308581924 1.5441381626
H 3.0098726858 -0.9330866030 0.5026086177
C 5.8393691435 2.1958304339 -1.6250617473
O 4.8451965804 2.1596915036 -2.6343615772
C 7.1617827166 1.5147443543 -2.0469444837
C 8.2612530925 1.5596017824 -0.9911427935
Cl 6.9168038657 -0.1994294730 -2.6261649843
H 6.1390318192 3.2393510025 -1.4267454872
H 5.2336240793 2.4696242114 -3.4685088618
H 7.5050689706 2.0442090018 -2.9421079304
H 8.0292542604 0.9252608225 -0.1303085268
H 9.2050262445 1.2106973433 -1.4161781135
H 8.4068449713 2.5889428335 -0.6412562484
C 1.5680217284 5.7403143291 2.5426140090
O 2.9506505314 5.8657284745 2.2791471151
C 1.4137067242 5.8532714623 4.0706769528
C 0.0214702288 6.1735115185 4.6019023708
Cl 2.0583803550 4.3517651372 4.9139846059
H 1.0074745406 6.5836811167 2.1063009370
H 3.0673987976 5.9014528841 1.3164932671
H 2.1136115097 6.6364990084 4.3670845449
H -0.6784164535 5.3427307025 4.4787021212
H 0.0766853236 6.4000166786 5.6693471814
H -0.3789676817 7.0565258137 4.0896308730
O 0.3475342699 -2.3506497397 0.1164459024
C -0.1733721365 -2.7856958356 1.3969271412
O 0.2132321147 -4.0581964682 1.7491891179
C 1.6540291191 -4.3240019422 1.7156288672
C 2.1476427297 -3.9281048204 0.3580251047
C 1.4774209143 -3.0219593327 -0.3497644595
H 2.1369056863 -3.7455134197 2.5108013536
H 1.7155886153 -2.7132074061 -1.3611670210
H 3.0372559838 -4.3775327994 -0.0636958890
H -1.2599044741 -2.8125942584 1.2748449778
N 0.3917615266 -0.4962310402 2.0715932908
C 0.1617817996 -1.7106313936 2.4548454912
S 0.0815441955 -2.3350322713 4.0759595386
C -0.0192957789 -0.8017687148 5.1540146917
C -0.2360062133 0.4550037925 4.3146129047
C 0.6871733614 0.5243258313 3.0986427644
H 0.9470617270 -0.7605771838 5.6618699214
H -1.2819818250 0.5102681214 4.0003655192
H -0.0441072388 1.3283898538 4.9437383083
H 1.7371489668 0.4082701571 3.4012096271
H 0.5947620291 1.4992618198 2.6195487975
C -1.1224128253 -1.1031779101 6.1938029343
O -2.3544255051 -1.0121468491 5.5090819820
C -1.0840207431 -0.2604399783 7.4913586408
C 0.2357274277 -0.3208750955 8.2522978956
Cl -1.5702183152 1.4765247681 7.2074881683
H -0.9554272872 -2.1343799786 6.5541187151
H -3.0767283768 -1.2207264302 6.1233057327
H -1.8838280050 -0.6516554994 8.1287691835
H 1.0399513238 0.1949469583 7.7191548663
H 0.1285413057 0.1536093557 9.2303527208
H 0.5311917535 -1.3650500708 8.4133830911
C 1.7567249052 -5.8071654357 2.1227823787
O 1.2137916690 -5.9391207227 3.4248515951
C 3.1768287758 -6.4068853139 2.1711767991
C 3.6253823653 -7.1160290465 0.8987404717
Cl 4.4381289373 -5.1639065164 2.6666871078
H 1.1768470713 -6.3988116669 1.3972125360
H 0.2727789399 -5.7049763447 3.3796774568
H 3.1642408736 -7.1132958001 3.0023855399
H 3.6719545915 -6.4492508255 0.0327544519
H 4.6153941008 -7.5554596410 1.0407934688
H 2.9224043283 -7.9258960898 0.6708970711
O -1.7989251999 -0.4656537142 -0.1577566660
C -2.0740610892 -0.9257042907 -1.5303727030
O -3.4024594925 -0.8738744334 -1.8511988397
C -4.0588834674 0.4220363638 -1.6513759451
C -3.8404358406 0.8035771346 -0.2195081754
C -2.7824395055 0.3399437703 0.4380168435
H -3.6167932410 1.1494425923 -2.3407031545
H -2.5671775228 0.4922589510 1.4887084580
H -4.5494695405 1.4324027579 0.3038482465
H -1.7807831398 -1.9788173949 -1.5274355586
N -0.0399997295 0.3357166113 -2.0371747764
C -1.1398097426 -0.1677845304 -2.4980341687
S -1.7158935990 -0.2471508414 -4.1375933961
C -0.2601830540 0.3634110781 -5.1455094268
C 1.0224956118 0.2917570350 -4.3229218091
C 0.9010620964 0.9907322309 -2.9685013501
H -0.5024658173 1.3989966032 -5.3962921543
H 1.3140993194 -0.7539983367 -4.1914000716
H 1.8236199798 0.7753077946 -4.8876362413
H 0.5677325926 2.0303502019 -3.0989722710
H 1.8821637343 1.0243640656 -2.4897072361
C -0.2779898033 -0.4798535615 -6.4405347211
O 0.1740929089 -1.7676936569 -6.0838653360
C 0.4651491793 0.1229076604 -7.6565139262
C -0.0141395570 1.5105619042 -8.0694190990
Cl 2.2783348551 0.1180659462 -7.4452666407
H -1.3286391515 -0.5194099983 -6.7836560281
H 0.1613143986 -2.3425311365 -6.8661694431
H 0.3000959522 -0.5736122198 -8.4850934301
H 0.2624130410 2.2746559521 -7.3365327828
H 0.4290104084 1.7929494746 -9.0270995225
H -1.1047021511 1.5137218671 -8.1873597293
C -5.5099726083 0.1803439777 -2.1112060361
O -5.4872784278 -0.1941170504 -3.4763363559
C -6.4671734170 1.3876835019 -1.9983641572
C -7.3126272913 1.4271807226 -0.7308064614
Cl -5.5934758637 2.9914093255 -2.2115601939
H -5.9303858019 -0.6283956329 -1.4933412473
H -5.0602623110 -1.0630128750 -3.5452670807
H -7.1172616422 1.3257975594 -2.8721602076
H -6.7125778723 1.5046367348 0.1809037759
H -7.9949763763 2.2798271364 -0.7585530094
H -7.9129831932 0.5119133628 -0.6684713636
