181
# extracted from Terachem optimization
Cr -0.2981222367 -0.5367262300 -0.3680106374
O -0.2651488004 1.5476394112 -0.6477354779
C 1.0243161249 2.2349707744 -0.7054087273
N 1.0474304318 3.1932073230 0.3577013556
C 0.1174688690 4.3335440369 0.2209419678
C -1.1711363947 3.7529952033 -0.3048656314
C -1.3288663111 2.4709119030 -0.6318110722
H -0.0670243704 4.6678064620 1.2489878807
H 1.9745418135 3.4500405526 0.6663638332
H -2.2430352845 2.0040187974 -0.9778245336
H -2.0168484825 4.4240777063 -0.4005227832
H 1.0508132517 2.6760786315 -1.7148240545
N 1.7323287086 -0.0292381764 -0.4431920432
C 2.1146879929 1.1902156420 -0.5743019558
C 3.5455349043 1.6779471289 -0.6645725677
C 4.5968180698 0.6406751700 -0.2202723803
C 4.1380624472 -0.6993334381 -0.8223059099
C 2.7577632452 -1.0877684225 -0.3060575895
H 4.5386135263 0.5713893044 0.8745351542
H 4.0939797491 -0.6173962833 -1.9165372651
H 4.8377263228 -1.5070222647 -0.6025040637
H 3.7120049105 1.9744830715 -1.7128186715
H 3.6473578785 2.6028900398 -0.0891336327
H 2.7725932694 -1.3731378500 0.7534590475
H 2.3922684498 -1.9668526472 -0.8404231761
C 6.0728096507 1.0734210481 -0.5554386784
C 6.4239883065 0.7278341194 -2.0172871054
C 6.2551866811 2.5987646199 -0.3645868887
C 7.0788910908 0.3355817878 0.4219711959
N 6.8313138032 0.7488338868 1.8006067125
O 6.8846031813 -1.0893972083 0.4068486611
N 8.4375024923 0.6221973330 0.0132678931
H 5.6475170716 1.0882647568 -2.7030757783
H 7.3553844818 1.2146017479 -2.3211445332
H 6.5335098696 -0.3503129813 -2.1682624793
H 5.8545210404 2.9522610763 0.5931468903
H 7.3195057941 2.8418795800 -0.4026613910
H 5.7567610157 3.1627227202 -1.1603088395
H 7.4576928457 0.2195447469 2.4087562944
H 7.0798095435 1.7287125098 1.9216845894
H 6.2025366621 -1.2773173571 1.0730755260
H 9.0756946104 0.1924409097 0.6823072389
H 8.6386722137 0.1849415281 -0.8843794384
C 0.6671461335 5.6152554552 -0.5335282476
C 2.0888394851 5.9157975131 -0.0113388313
C 0.7326064980 5.4182377245 -2.0609752977
C -0.2438090469 6.8726878218 -0.1858939890
N -1.5822568813 6.7220861145 -0.7482870494
O -0.4056542963 6.9982696787 1.2318355679
N 0.3970995547 8.0739961671 -0.6883768737
H 2.7724729853 5.0840430401 -0.2121267927
H 2.5128477595 6.7750920241 -0.5358779196
H 2.0911389899 6.1255123568 1.0637837011
H -0.2032906419 5.0243641876 -2.4712049464
H 0.9573188510 6.3717486428 -2.5467302987
H 1.5315767560 4.7183404236 -2.3347241436
H -2.1281509628 7.5480144867 -0.4977003930
H -1.5317919858 6.7089271853 -1.7656721997
H -1.1925785522 6.4870640279 1.4838681258
H -0.2586404044 8.8504462734 -0.6051075717
H 1.1901170880 8.3230585792 -0.0998010683
O 0.0087740938 -2.4888072600 0.2828339552
C -0.0856203143 -2.8094939617 1.7132768482
N 1.1748818478 -3.3422043556 2.1148225317
C 1.5473272310 -4.6545932273 1.5529086007
C 1.0975752435 -4.6293254128 0.1124227852
C 0.4562329360 -3.6026583940 -0.4442110941
H 2.6442946378 -4.6631305129 1.5469095074
H 1.4194039949 -3.2000607822 3.0840257740
H 0.1624042110 -3.5312635818 -1.4834652307
H 1.3325159668 -5.4942927292 -0.4968525955
H -0.9203438458 -3.5270087104 1.7635951151
N -0.5903489867 -0.4731555950 1.7291652167
C -0.4509915230 -1.5322568657 2.4431104633
C -0.6553373778 -1.6323934605 3.9399280644
C -0.5812446239 -0.2695494264 4.6549410021
C -1.4570500664 0.6805061375 3.8192227991
C -0.9317469732 0.8063803262 2.3909818976
H 0.4626409809 0.0673745158 4.5935954707
H -2.4868955786 0.3004168954 3.7898121253
H -1.5100698241 1.6764413956 4.2629963985
H -1.6363426723 -2.1059609882 4.1062431405
H 0.0722738514 -2.3369436668 4.3518099498
H -0.0272150031 1.4257036372 2.3377685703
H -1.6715679945 1.3057359811 1.7596187388
C -0.9215096808 -0.3503480441 6.1908690014
C -2.4455547920 -0.2839184531 6.4210658465
C -0.4060698553 -1.6762784437 6.8003216779
C -0.2135113756 0.8456658627 6.9503761869
N 1.2379044916 0.7187973029 6.8388274265
O -0.5375381593 2.1153132028 6.3566802025
N -0.6430749737 0.8597096110 8.3320013640
H -2.9713256131 -1.0034845124 5.7815338724
H -2.6924942193 -0.5498531838 7.4527249224
H -2.8487908350 0.7120839274 6.2137154781
H 0.6353925852 -1.8883440466 6.5298557042
H -0.4720330949 -1.6243153067 7.8896806141
H -1.0133707887 -2.5267482335 6.4719521628
H 1.6620263725 1.5378776863 7.2765658174
H 1.5575291300 -0.0856531402 7.3750195394
H 0.1101315668 2.2628250009 5.6472242300
H -0.1449257061 1.6045249439 8.8184127261
H -1.6313490275 1.0984819314 8.3948659325
C 1.1397433684 -5.9363503129 2.3900447443
C 1.5371235506 -5.6887662201 3.8614672684
C -0.3724438549 -6.2264145708 2.3317706270
C 1.9646275672 -7.1941732636 1.8740181883
N 1.5639537671 -7.5723433170 0.5207811456
O 3.3613208007 -6.8755385309 1.8150667021
N 1.7709419330 -8.2968401940 2.7954138535
H 1.0261950743 -4.8097106601 4.2684106191
H 1.2236625231 -6.5254178499 4.4905376198
H 2.6179075923 -5.5511064402 3.9743456321
H -0.7607723279 -6.2507549708 1.3073179229
H -0.5813448214 -7.1891976660 2.8061886276
H -0.9380939148 -5.4631244958 2.8798277043
H 2.1238845074 -8.3777757607 0.2358068440
H 0.5948438608 -7.8869717593 0.5215990123
H 3.5559411156 -6.5698682516 0.9138105383
H 2.2036110101 -9.1303064310 2.3979313009
H 2.2673257506 -8.1218463012 3.6673304234
O -2.3561979718 -0.8485195513 -0.5936562086
C -2.8040901869 -0.8824525511 -1.9796637336
N -3.5701630105 0.3119693891 -2.2122546264
C -4.8743372041 0.3635787359 -1.5067460904
C -4.6149925338 -0.1682188282 -0.1210012125
C -3.4448159515 -0.6652048076 0.2757856566
H -5.0956173566 1.4332891030 -1.4075757308
H -3.6453190132 0.5615091595 -3.1907476342
H -3.2108988037 -0.9949082967 1.2782677361
H -5.4186626260 -0.0880240768 0.6005729782
H -3.3917553550 -1.8121743455 -2.0485188757
N -0.4203218135 -0.9082455884 -2.4357602203
C -1.6121228208 -1.0003275540 -2.9164732843
C -1.9644163096 -1.2678371411 -4.3644706137
C -0.8039520984 -1.0076082802 -5.3427944449
C 0.4260523239 -1.6780775428 -4.7057903745
C 0.7360581219 -1.0434688127 -3.3518385767
H -0.6358448003 0.0780132596 -5.3626079556
H 0.2374135114 -2.7510281152 -4.5678813311
H 1.3065532284 -1.5992482038 -5.3458591696
H -2.2968513484 -2.3169536199 -4.4232817228
H -2.8464376501 -0.6772685149 -4.6274553555
H 1.1419450991 -0.0313460370 -3.4765880688
H 1.4965256245 -1.6190001276 -2.8175034905
C -1.1378318114 -1.4198335103 -6.8259868216
C -0.8847051507 -2.9258151875 -7.0469654828
C -2.6206843941 -1.1228773930 -7.1528324539
C -0.2368934241 -0.5783282630 -7.8225457794
N -0.5333821340 0.8450001575 -7.6839514547
O 1.1608194680 -0.7155114133 -7.5105312350
N -0.4585975116 -1.0432016044 -9.1747393192
H -1.3625548133 -3.5256460218 -6.2628227063
H -1.3162699844 -3.2579040612 -7.9955424930
H 0.1838005656 -3.1600790838 -7.0499733024
H -2.9215374928 -0.1129022347 -6.8495840191
H -2.7810178983 -1.2188037932 -8.2290977489
H -3.2893041285 -1.8324469467 -6.6535564204
H 0.0855765607 1.3619631856 -8.3103090680
H -1.4807759355 1.0356397479 -8.0047681832
H 1.3745835790 -0.0025548504 -6.8859523048
H 0.0864505844 -0.4622961594 -9.8112042302
H -0.1009141002 -1.9902303377 -9.2876997526
C -6.1188376658 -0.2276244685 -2.2867411084
C -6.0073423751 0.1947509826 -3.7679221216
C -6.2087049763 -1.7648632827 -2.2207816950
C -7.4590575987 0.4200272630 -1.7248613404
N -7.6010107464 0.1574482347 -0.2863295188
O -7.4102846491 1.8317812397 -1.8796811769
N -8.5841826411 -0.0090687389 -2.5515376929
H -5.2227974305 -0.3710456016 -4.2839919606
H -6.9508687875 -0.0140648408 -4.2743905914
H -5.8076381186 1.2666846761 -3.8731615374
H -6.2115162062 -2.1586795913 -1.1975672003
H -7.1151324238 -2.1073545666 -2.7294028043
H -5.3677968958 -2.2364712498 -2.7419291862
H -8.5260926456 0.4791170295 0.0040315770
H -7.5795169178 -0.8439261304 -0.0988298596
H -7.1702770891 2.1936743582 -1.0117937950
H -9.0345452887 -0.8360444604 -2.1704769579
H -9.2671731530 0.7436580654 -2.5907444989
