163
# extracted from Terachem optimization
Cr -0.1799394492 -0.0496055559 -0.1922113340
O -0.0428020739 1.8976444458 -0.4405787148
C 1.3016970315 2.4672243494 -0.5599878226
C 1.2045946748 3.7256726390 0.2924061377
C -0.1902967260 4.2810002884 -0.0707464263
C -1.0125480275 3.0108017419 -0.3870884017
H -1.7204253546 2.7545235914 0.3959488462
H -1.5218122180 3.0486715005 -1.3528447532
H -0.1098770198 4.8794405689 -0.9834980099
H 2.0059198317 4.4339948126 0.0700736874
H 1.2441131438 3.4550801250 1.3526822386
H 1.4473148606 2.7390071283 -1.6182170985
N 1.8592270223 0.2237565103 0.0302937162
C 2.3043209072 1.4210835223 -0.1749931009
C 3.7698566780 1.7680968407 -0.1736907287
C 4.5813020794 0.9400886485 0.8434204708
C 4.0547437650 -0.4783987824 0.8013669805
C 2.8053515905 -0.7681474919 0.4151270977
H 4.4190716745 1.3281142868 1.8617164388
H 4.1652884503 1.5393143091 -1.1786496079
H 3.9003995237 2.8416617113 -0.0162095460
H 2.4225607657 -1.7804057289 0.4265780004
H 4.6983468191 -1.2906876519 1.1162747236
C 6.1236299740 1.0549892077 0.5710950056
N 6.4260588255 0.3031249831 -0.6530555173
C 6.5165005414 2.5248032990 0.3187778766
C 6.9828063211 0.5318894282 1.7806475822
N 6.6495722237 1.2498837996 3.0170166593
N 6.8372610296 -0.9111540583 1.9866177791
H 7.3398752086 0.5785029354 -1.0121109526
H 6.5010798709 -0.6862784971 -0.4129503192
H 6.1173189641 3.2033097883 1.0808105744
H 7.6081431767 2.6317275073 0.3125507984
H 6.1537105525 2.8602090899 -0.6564604316
H 8.0267403254 0.6850384148 1.4561366804
H 7.2573752184 0.9237748197 3.7681179810
H 6.8347746518 2.2476381676 2.9225070550
H 7.7112133675 -1.3125900654 2.3193246259
H 6.1460062180 -1.0692367260 2.7194362829
C -0.7939214180 5.1998025127 1.0398233970
N -1.1561113140 4.3718306678 2.2027629892
C 0.2652018463 6.2290645484 1.4768794752
C -2.0555355232 5.9759009819 0.5212692408
N -1.7606228516 6.6948298311 -0.7220485974
N -3.1890710214 5.0696782616 0.3308053438
H -1.0327376893 4.8968382045 3.0663579266
H -2.1490583308 4.1439627571 2.1346069157
H 0.7316210156 6.7324219004 0.6236466988
H -0.1853397200 6.9957252034 2.1184200405
H 1.0631768529 5.7478875535 2.0508870913
H -2.3440949180 6.6397312837 1.3539526235
H -2.5883672627 7.2100493770 -1.0200012931
H -1.0337879833 7.3951656692 -0.5779296504
H -4.0654242722 5.5775364582 0.4319760084
H -3.1780417391 4.6913944605 -0.6166887984
O -0.2148803176 -2.2564165517 -0.0381803626
C -0.6816658121 -2.7644784601 1.2290495048
C 0.2419895961 -3.9509557069 1.5173148729
C 0.4668196426 -4.5595054807 0.1185663607
C 0.4365128459 -3.3195863058 -0.7990754952
H 1.4286433742 -2.9656309267 -1.0741018010
H -0.1510348121 -3.4822288516 -1.7068523001
H -0.3838275722 -5.2003803215 -0.1360622986
H -0.2090524003 -4.6578072452 2.2178136639
H 1.1932589681 -3.5964210140 1.9277142146
H -1.7200804892 -3.1178126083 1.1088153178
N -0.3967732431 -0.4572806745 1.8058977722
C -0.6746854374 -1.6463833983 2.2319997107
C -1.0842706269 -1.9112995481 3.6572670156
C -0.3601260219 -0.9845803304 4.6546568628
C -0.3803560837 0.4111627296 4.0661873722
C -0.4085194662 0.6172014236 2.7437006338
H 0.6924592534 -1.2947014917 4.7509750587
H -2.1676703664 -1.7222373043 3.7443743545
H -0.9208692884 -2.9655039169 3.8917251373
H -0.4084851052 1.6146864458 2.3138828621
H -0.3508358213 1.2689291103 4.7273230475
C -0.9843053995 -1.0725818312 6.0921991593
N -2.2816251683 -0.3835421062 6.0712046187
C -1.2410609282 -2.5421494175 6.4799613579
C -0.0393141200 -0.4481869771 7.1847443873
N 1.2756316011 -1.0990267573 7.1835418726
N 0.1184684119 0.9984971124 7.0181860290
H -2.8378886749 -0.6689677792 6.8770824676
H -2.1112947337 0.6165043427 6.1864643097
H -0.3764497993 -3.1838326961 6.2792693340
H -1.4782439941 -2.6191354189 7.5481003638
H -2.0957715846 -2.9467794089 5.9303706210
H -0.5931692622 -0.5846012637 8.1299302233
H 1.8420356705 -0.7155879591 7.9397949999
H 1.1926500322 -2.0966270501 7.3741339540
H 0.2248920806 1.4513173565 7.9233390947
H 0.9790227530 1.1750570991 6.4998210390
C 1.7563576458 -5.4332693293 0.0177205583
N 2.9361613104 -4.5628409705 0.1521907936
C 1.7657540973 -6.4515150449 1.1725567847
C 1.8262378857 -6.2065326049 -1.3466956420
N 0.6141916413 -6.9991174062 -1.5742582584
N 2.0407803428 -5.2796207609 -2.4595214029
H 3.7085777212 -5.0793164051 0.5694502288
H 3.2357636854 -4.2954732392 -0.7869404255
H 0.8145360860 -6.9868166031 1.2627520073
H 2.5601570053 -7.1944536549 1.0298035183
H 1.9530782448 -5.9499457504 2.1271516026
H 2.7428696158 -6.8175224947 -1.2780893273
H 0.7176234718 -7.5368968164 -2.4343461139
H 0.4782534610 -7.6830744099 -0.8307861376
H 2.5978646900 -5.7146712066 -3.1911499095
H 1.1404131517 -5.0477745140 -2.8775386869
O -2.2893514198 -0.4625457496 -0.4326700730
C -2.6390910341 -0.8602142689 -1.7705377275
C -3.8502887839 0.0081435241 -2.1328306167
C -4.6022322544 0.1013825218 -0.7917728607
C -3.4479146699 0.1403402286 0.2263874815
H -3.1707370672 1.1525685383 0.5159238534
H -3.6479867884 -0.4457954206 1.1260810692
H -5.1698840204 -0.8221731061 -0.6347994982
H -4.4527905523 -0.4420895469 -2.9250130559
H -3.5292260507 1.0064648303 -2.4504279397
H -2.9425790182 -1.9216087981 -1.7532156786
N -0.2946648889 -0.4308648423 -2.2281742676
C -1.4573168021 -0.7625636338 -2.6935515436
C -1.6462408965 -1.1615151308 -4.1337867548
C -0.7358660223 -0.3727642894 -5.0953657835
C 0.6405347900 -0.3250196652 -4.4662765738
C 0.8003238946 -0.3680548191 -3.1381474118
H -1.0974454062 0.6627628686 -5.1961986784
H -1.3755996858 -2.2283983533 -4.2210334149
H -2.7002699617 -1.0759413529 -4.4038803969
H 1.7646128819 -0.3163278457 -2.6493311173
H 1.5136560368 -0.2390199911 -5.1016221830
C -0.7543549098 -0.9925447456 -6.5377645090
N -0.0421176453 -2.2751754248 -6.4899947085
C -2.2035604902 -1.2760047477 -6.9809634958
C -0.1075224959 -0.0300428602 -7.6029765657
N -0.7663052990 1.2806100753 -7.5991904049
N 1.3336524230 0.1347818264 -7.4001346703
H -0.2904324073 -2.8413632035 -7.3008894114
H 0.9587546703 -2.0885550690 -6.5691034961
H -2.8699771276 -0.4258759408 -6.7988864065
H -2.2357301836 -1.5060980987 -8.0526930115
H -2.6106900040 -2.1435771233 -6.4537866137
H -0.2199668068 -0.5730753406 -8.5573933339
H -0.3691826075 1.8592218474 -8.3389856445
H -1.7586692751 1.1943330291 -7.8144687255
H 1.8175917977 0.2013775623 -8.2924605176
H 1.4994309610 1.0127493345 -6.9089297566
C -5.6133117796 1.2852744575 -0.7212339551
N -4.8726952362 2.5580080176 -0.7702749786
C -6.5479373368 1.2285094447 -1.9446102364
C -6.4810767032 1.2243199910 0.5855649587
N -7.1551174264 -0.0702159384 0.7126052062
N -5.6585561255 1.4851425580 1.7686790213
H -5.4908164860 3.2886220339 -1.1225606367
H -4.6315797087 2.8257659217 0.1864703044
H -6.9749117282 0.2315739846 -2.0954316694
H -7.3766258513 1.9375362527 -1.8282024865
H -6.0083641955 1.5000102813 -2.8571454247
H -7.1776130151 2.0770490991 0.5028642095
H -7.7626675829 -0.0605484395 1.5313994510
H -7.7631430940 -0.2477536951 -0.0856853795
H -6.1933172890 1.9791649352 2.4791654937
H -5.3815475668 0.5949086137 2.1807560250
