169
# extracted from Terachem optimization
Cr -0.1722683431 -0.2154786967 -0.2797378505
O -0.2313826437 2.3784359946 -0.1820441882
C 0.9898265474 2.7410309234 -0.8727119340
N 1.2334194162 4.1347120375 -0.7501227055
C 1.4204880244 4.6415056420 0.6129376667
C 0.2453844210 4.1409270250 1.4066425558
C -0.4866425891 3.1153989184 0.9679184623
H 2.3368743300 4.2490546866 1.0828742699
H 1.9549843272 4.5004209543 -1.3670328150
H -1.3646083081 2.7303528067 1.4744689342
H 0.0059571115 4.5734438276 2.3700663816
H 0.7974597071 2.5275529093 -1.9301333944
N 1.8131692279 0.5312362938 -0.1705785512
C 2.1151205960 1.7711596772 -0.4246668627
C 3.4734004004 2.2854971713 -0.3973859756
C 4.5487868998 1.4603381707 -0.4224773610
C 4.2523132522 -0.0262442899 -0.4461796913
C 2.9436519923 -0.3134119668 0.2862072898
H 4.2220143980 -0.3785455988 -1.4866369633
H 5.0468253338 -0.6086090009 0.0267430855
H 3.6158986509 3.3568912500 -0.3861630912
H 3.0774742451 -0.1202015236 1.3605525114
H 2.6551182713 -1.3599396218 0.1804608351
C 5.9691628303 2.0326103349 -0.4060685845
N 5.8856087246 3.4938296153 -0.3081844827
C 6.6973712644 1.5318030926 0.8618429275
C 6.7997927556 1.6633434691 -1.7215201845
N 6.8475668999 0.2224279550 -1.9456861005
O 6.1564112892 2.2428362528 -2.8465256207
N 8.0831948760 2.3531855777 -1.6409310773
H 6.8394417460 3.8322676932 -0.1800945130
H 5.6164767559 3.8494899980 -1.2275719772
H 6.7685081113 0.4411856717 0.9178962443
H 7.7102767741 1.9453984507 0.8825649492
H 6.1706570697 1.8869601117 1.7521936160
H 7.4446613239 0.0388172814 -2.7532221524
H 7.2667013693 -0.2605625008 -1.1531183567
H 5.4474988220 1.6286179248 -3.0964708283
H 8.8238635485 1.7255474362 -1.3420370375
H 8.3254244819 2.7176462689 -2.5596566366
C 1.6521164745 6.1903354720 0.5007624503
N 2.8679369634 6.2773552630 -0.3416861796
C 0.5117302604 6.8847711219 -0.2590707684
C 1.8676645575 6.8272801358 1.9479690252
N 0.6188361824 7.3437350914 2.4660407006
O 2.3789279107 5.8541516730 2.8750897003
N 2.8867680400 7.8666625073 1.8754045791
H 2.8894597571 7.1701009806 -0.8314312716
H 3.7007999772 6.2760520654 0.2463006682
H -0.4637011638 6.6862939132 0.1892184554
H 0.6517914957 7.9702365883 -0.2634926525
H 0.4842033555 6.5259961497 -1.2906973251
H 0.7530800135 7.5973088149 3.4446362542
H -0.1254564147 6.6510264041 2.4406362845
H 3.3437985708 5.8263285886 2.7512795506
H 2.5741111420 8.6149790386 1.2574917438
H 2.9820363293 8.2867867972 2.8009817508
O -0.2153057026 -2.7085413201 -0.1271865785
C -0.9125000766 -3.0005371399 1.1193205973
N -0.8065401659 -4.3805224064 1.4257136558
C 0.5467989659 -4.8970179378 1.6446634278
C 1.3723027972 -4.4284177315 0.4769596762
C 0.9505130405 -3.4433560239 -0.3182622321
H 1.0008000999 -4.4996773890 2.5669059849
H -1.4407845109 -4.7180868574 2.1456060447
H 1.4807404650 -3.0880205978 -1.1954495960
H 2.3473081759 -4.8617930594 0.2917631921
H -1.9634906632 -2.7670651400 0.9186325259
N -0.0836964967 -0.7859916347 1.7680624473
C -0.4307454821 -1.9728570485 2.1712316615
C -0.4929950777 -2.3605191725 3.5698728835
C -0.5316889918 -1.4308681110 4.5569235596
C -0.4250422733 0.0165780754 4.1202415425
C 0.3896816116 0.1252298193 2.8346556201
H -1.4331379326 0.4372189928 4.0024331480
H 0.0537274658 0.6362402418 4.8826694541
H -0.5597339470 -3.4129703832 3.8089541884
H 1.4378336127 -0.1366218091 3.0436326936
H 0.3803268079 1.1481926802 2.4556323082
C -0.6819181543 -1.8464549685 6.0242339941
N -0.6493801132 -3.3093404588 6.1054721475
C 0.5213072379 -1.3168306085 6.8337720997
C -2.0625121415 -1.3351367013 6.6513756971
N -2.2194214003 0.1079568780 6.5100314277
O -3.1362089908 -1.9481721196 5.9551540703
N -2.1566712222 -1.8647390443 8.0084733974
H -0.6091403157 -3.5463416171 7.0966249138
H -1.5618769969 -3.6557614307 5.8025107215
H 0.6291355285 -0.2288474373 6.7884254336
H 0.4045838385 -1.6072175412 7.8823559681
H 1.4437757243 -1.7682218092 6.4571980916
H -3.0868995605 0.3841746693 6.9718174453
H -1.4637639547 0.6090553207 6.9743132636
H -3.2530790775 -1.4475217222 5.1314042147
H -1.9684454784 -1.1427718727 8.6976719826
H -3.0979614377 -2.2176196229 8.1664910707
C 0.4162406315 -6.4459688831 1.8805563293
N -0.4669931912 -6.5287713822 3.0658397321
C -0.3085622164 -7.1350330960 0.7141902034
C 1.8540535835 -7.0908473526 2.1458641043
N 2.3952016630 -7.6442667713 0.9223754011
O 2.7815663582 -6.1147099548 2.6500908445
N 1.7482139206 -8.1011749052 3.1898556527
H -0.9943833736 -7.3998458472 3.0488217950
H 0.0935997225 -6.5734997816 3.9161394643
H 0.1745907908 -6.9406966168 -0.2455333822
H -0.3268562652 -8.2201142727 0.8542390023
H -1.3352367417 -6.7659039759 0.6525825358
H 3.3660365153 -7.9088142433 1.0890080047
H 2.4028484658 -6.9637564369 0.1662079341
H 2.6355001825 -6.0543628318 3.6104140535
H 1.1251001193 -8.8495694166 2.8882738699
H 2.6659884008 -8.5292593775 3.3182561503
O -2.2626005238 -0.6881268984 -0.4842306841
C -2.5056018400 -1.3642184446 -1.7807220778
N -3.8851542596 -1.3345304855 -2.0664246880
C -4.4741983839 -0.0120983717 -2.2804429726
C -4.0537194391 0.8281630513 -1.1068983785
C -3.0625698644 0.4593788639 -0.2981897464
H -4.0953361361 0.4667713445 -3.1971244569
H -4.2144932052 -2.0005613129 -2.7613760680
H -2.7414219530 1.0024072738 0.5817589331
H -4.5310619194 1.7831118281 -0.9242310669
H -2.1936682354 -2.4001121348 -1.6153146727
N -0.3905768612 -0.2871577417 -2.3764549419
C -1.5140094306 -0.7787690550 -2.8071737900
C -1.8486985927 -0.9240841362 -4.2115545102
C -0.8894669152 -0.8828612631 -5.1689993003
C 0.5299895552 -0.6619996708 -4.6823624371
C 0.5339870005 0.2003289641 -3.4203842786
H 1.0097726431 -1.6333361051 -4.5018723772
H 1.1479224239 -0.1715509069 -5.4379608715
H -2.8847195977 -1.0837197314 -4.4783611892
H 0.2268356744 1.2264458233 -3.6724434180
H 1.5377527555 0.2459530343 -2.9907797951
C -1.2484076463 -1.0563166885 -6.6477782781
N -2.7084568662 -1.0968353339 -6.7740069823
C -0.7518699173 0.1684125509 -7.4448161840
C -0.6530864692 -2.4124256142 -7.2521948998
N 0.7900704163 -2.4932812371 -7.0685482526
O -1.2341642169 -3.5100512396 -6.5660404294
N -1.1355824875 -2.5347041854 -8.6246350968
H -2.9218446347 -1.0314091837 -7.7689094237
H -3.0161485370 -2.0348891809 -6.5103632387
H 0.3281701325 0.3270433028 -7.3688111339
H -1.0051572603 0.0334074048 -8.5006599222
H -1.2563405121 1.0703943761 -7.0858808535
H 1.1227272768 -3.3606700001 -7.4917217335
H 1.2658045201 -1.7279953832 -7.5435801618
H -0.7710373997 -3.5858546617 -5.7157569480
H -0.3847090009 -2.3872616284 -9.2923952916
H -1.5088719922 -3.4701028172 -8.7694753751
C -6.0154031303 -0.2171871651 -2.5156044326
N -6.0571155812 -1.1219762082 -3.6850956137
C -6.6705223955 -0.9541124776 -1.3373503267
C -6.7192426635 1.1918066936 -2.8041483731
N -7.3205627140 1.7131083649 -1.5957792733
O -5.7715362918 2.1544766521 -3.2935110528
N -7.7004550951 1.0335381673 -3.8678426375
H -6.9046499178 -1.6861199179 -3.6609170607
H -6.1233620324 -0.5780832045 -4.5450222567
H -6.4894166622 -0.4537195837 -0.3837518806
H -7.7545341788 -1.0142302156 -1.4713659268
H -6.2634661633 -1.9660546160 -1.2665041729
H -7.6334737072 2.6671860954 -1.7751134845
H -6.6537268257 1.7645135838 -0.8291545085
H -5.6921933771 2.0147811445 -4.2534163429
H -8.4313000275 0.3858814478 -3.5750586421
H -8.1599357905 1.9323158980 -4.0198577002
