169
# extracted from Terachem optimization
Cr -0.4423394241 -0.2565149386 -0.1780239618
N -0.3530145283 1.7339280124 -0.4539099677
C 0.9072394485 2.1714985359 -0.7046028017
C 1.1026294148 3.6011928674 -1.1385715178
C 0.1757998824 4.5593766150 -0.3598663895
C -1.2222792902 3.9886377507 -0.3811299777
C -1.4045075415 2.6513882208 -0.4404217785
H 0.5204948361 4.5525643149 0.6889548694
H 0.8543223560 3.6555727317 -2.2107973863
H 2.1389432262 3.9239515707 -1.0474013919
H -2.3909595825 2.2024899627 -0.4048926824
H -2.0725113739 4.6557554381 -0.3005104398
N 1.5549347623 -0.0744275609 -0.4502553850
C 1.9453597176 1.1987376651 -0.6147924519
C 3.3971025692 1.6042359962 -0.7546947050
C 4.4234140498 0.5354785207 -0.3283527864
C 3.9058259370 -0.8076140965 -0.8680787189
C 2.5443684868 -1.1335280732 -0.2548074783
H 4.4535594026 0.4798340693 0.7680291726
H 3.8098476024 -0.7509039861 -1.9602495789
H 4.5775856898 -1.6369971989 -0.6432665077
H 3.5890542349 1.8498769146 -1.8106220266
H 3.5476298397 2.5301329260 -0.1932200537
H 2.6637554278 -1.3250829732 0.8255506893
H 2.1383565206 -2.0550128952 -0.6882147813
C 5.8718108382 0.9200311925 -0.7888333952
N 5.9594004854 0.7384638561 -2.2476247057
C 6.1433466721 2.4145906810 -0.5086669391
C 6.9857578875 0.1267235561 -0.0074830763
O 6.8992778839 0.3591904960 1.4033174396
C 7.0528203678 -1.3934223829 -0.1596415072
H 6.7781577697 1.2183014302 -2.6190486805
H 6.0707650994 -0.2440655429 -2.4887293372
H 5.9132788273 2.6768745793 0.5287343933
H 7.1997835876 2.6474021411 -0.6917885975
H 5.5539316931 3.0586417293 -1.1654717481
H 7.9351405598 0.5312118875 -0.3938477424
H 7.2853088434 1.2263820585 1.5972668492
H 6.9573637777 -1.7212512554 -1.2000666048
H 8.0203548341 -1.7441059431 0.2108785442
H 6.2828235582 -1.8817447332 0.4444451354
C 0.2928301869 6.0438896918 -0.8334857132
N 1.7194640141 6.4082254279 -0.7191841368
C -0.0968238505 6.2048051453 -2.3123328774
C -0.5943337871 7.0176619014 0.0260254908
O -1.9972174758 6.9046851136 -0.2493387762
C -0.4592987849 6.8742754860 1.5402539323
H 1.8847144393 7.3117741327 -1.1613180775
H 1.9873908815 6.5173243109 0.2585388575
H -1.0838240343 5.7819054958 -2.5214622658
H -0.1150730133 7.2669775011 -2.5901517017
H 0.6334800716 5.7177943548 -2.9642252692
H -0.2547246456 8.0282702539 -0.2533164338
H -2.1762580222 7.3341457514 -1.0995525695
H 0.5849624925 6.9151665253 1.8679011291
H -0.9956396713 7.6918253813 2.0292960255
H -0.8993312779 5.9344018699 1.8894261279
N -0.3178017555 -2.2842492424 0.4465956760
C -0.1264567358 -2.4711370356 1.7261604661
C -0.1318897350 -3.8579386431 2.3101977365
C 0.5252868349 -4.8623760058 1.3466176484
C -0.0611143832 -4.6414968576 -0.0264034317
C -0.4533988590 -3.4087083302 -0.3963084308
H 1.5959248264 -4.5997307587 1.2772962383
H -1.1911345753 -4.1254880893 2.4625300156
H 0.3436273043 -3.9056500989 3.2889505268
H -0.8309962983 -3.1864093170 -1.3863532511
H -0.1080717745 -5.4694295390 -0.7257961619
N -0.1964522247 -0.1322338530 1.8913994467
C 0.0101051807 -1.2384405100 2.5399681692
C 0.3633514388 -1.3354902379 3.9991729040
C 0.7149934753 0.0053654854 4.6741186346
C -0.2662797218 1.0450575869 4.1073357321
C -0.1266574122 1.1574306931 2.5913019087
H 1.7352027609 0.2936854559 4.3906469159
H -1.2943266495 0.7508302767 4.3572549565
H -0.1075629834 2.0397995559 4.5247110925
H -0.4918984334 -1.7820204279 4.5312991733
H 1.1846430466 -2.0544820931 4.0908806182
H 0.8279532367 1.6249536940 2.3122317276
H -0.9101621948 1.7940158170 2.1701252415
C 0.7105419446 -0.1359434155 6.2340250682
N -0.6823894717 -0.3058831237 6.6769999880
C 1.4732953713 -1.4141929100 6.6476027932
C 1.4561981566 1.0563542301 6.9443424634
O 2.8007163050 1.1606560226 6.4592182065
C 0.8610259861 2.4616187943 6.8501776933
H -0.7128865961 -0.6732348533 7.6268612756
H -1.1738547101 0.5850917740 6.6998311846
H 2.4672744910 -1.4503391968 6.1915278920
H 1.6016597199 -1.4415185961 7.7366654521
H 0.9282683783 -2.3200239427 6.3695705010
H 1.4653333107 0.7825126966 8.0106318205
H 3.3688716009 0.5752867414 6.9813679562
H -0.2204047646 2.4768735279 7.0224413766
H 1.3254020426 3.0940047035 7.6122091628
H 1.0778223328 2.9210047321 5.8817522876
C 0.4846023700 -6.3318659339 1.8825950636
N 1.1787777777 -6.3066672453 3.1832666385
C -0.9558394135 -6.8037816501 2.1403966270
C 1.1752926426 -7.3398198183 0.8936250810
O 0.3984564614 -7.5758652949 -0.2888464769
C 2.5689651732 -6.9428221240 0.4100610115
H 1.0086334273 -7.1741494581 3.6902245483
H 2.1880210334 -6.2425917813 3.0561227104
H -1.5935429134 -6.6722454867 1.2613190384
H -0.9641073650 -7.8678695590 2.4090002786
H -1.4040159194 -6.2626671494 2.9786557299
H 1.2641798480 -8.2783318285 1.4624383895
H -0.2827341045 -8.2352754974 -0.0886474972
H 3.2425103242 -6.6996560924 1.2385966732
H 3.0082452990 -7.7770830306 -0.1430506119
H 2.5266883919 -6.0857578154 -0.2702923581
N -2.5365542876 -0.4722358534 -0.2863715869
C -2.9998410698 -0.6967103951 -1.4847400460
C -4.4597624312 -0.9998190467 -1.6943536945
C -5.3442993608 -0.1704004331 -0.7449470441
C -4.7539454761 -0.2421515038 0.6412679010
C -3.4302889276 -0.4115978136 0.8055285763
H -5.2796744645 0.8853916483 -1.0626695276
H -4.5867596210 -2.0738097263 -1.4770402814
H -4.7761839583 -0.8567620818 -2.7255823424
H -2.9440059914 -0.4184232778 1.7727396321
H -5.4033462628 -0.0976568917 1.4985178759
N -0.7575603686 -0.6081604287 -2.2222279995
C -1.9962455811 -0.7064199001 -2.5893215969
C -2.4712163809 -0.8249397321 -4.0130646483
C -1.3977205855 -0.5493761582 -5.0837625695
C -0.1010846442 -1.2012041277 -4.5755052937
C 0.3156436553 -0.6206864489 -3.2277757527
H -1.2451397727 0.5350371217 -5.1582023168
H -0.2567018351 -2.2831743741 -4.4751996345
H 0.7344682590 -1.0603424076 -5.2624011713
H -2.8656340274 -1.8442620531 -4.1521889701
H -3.3266696776 -0.1526892914 -4.1348530906
H 0.6649390297 0.4158443879 -3.3239202464
H 1.1497093245 -1.1849544739 -2.8020006577
C -1.8651736581 -1.0342934992 -6.4987165735
N -1.7844362928 -2.5044158835 -6.5306816239
C -3.3460953250 -0.6666546720 -6.7360029165
C -1.0586206622 -0.3386378644 -7.6574110811
O -1.2233228502 1.0832918083 -7.5969628856
C 0.4485781953 -0.5794583940 -7.7464185814
H -2.3424879814 -2.8757898611 -7.2981270083
H -0.8300626546 -2.8174330138 -6.6964185935
H -3.5356603367 0.3941757009 -6.5463505402
H -3.6212916099 -0.8777797005 -7.7765468664
H -4.0131498097 -1.2587325537 -6.1039331926
H -1.5065180660 -0.7293795406 -8.5842103260
H -2.0224503599 1.3281309541 -8.0862015505
H 0.7159824952 -1.6361993066 -7.6394908168
H 0.8028693764 -0.2446958262 -8.7253272011
H 0.9847382576 0.0075492130 -6.9952920948
C -6.8598523398 -0.5516058109 -0.8454301004
N -7.2229611166 -0.4159173013 -2.2682860941
C -7.1044586207 -2.0173819413 -0.4505173860
C -7.7587237692 0.3694314235 0.0584294799
O -7.5986500769 0.0947487198 1.4573973245
C -7.5442435157 1.8732585278 -0.1038199474
H -8.1287011466 -0.8489723137 -2.4425801325
H -7.3192225070 0.5645728120 -2.5298469432
H -6.7093925553 -2.2457352806 0.5434654379
H -8.1807504163 -2.2311560233 -0.4431005300
H -6.6503671158 -2.7033146223 -1.1715116447
H -8.7917633999 0.1351885352 -0.2412088587
H -8.1739173091 -0.6462998879 1.6997117190
H -7.5981187964 2.1921854124 -1.1502426818
H -8.3221346722 2.4079861532 0.4472240424
H -6.5791224847 2.1866716826 0.3077896688
