181
# extracted from Terachem optimization
Cr -0.5573981363 -0.6628823862 -0.7387009481
O -0.3522056760 1.8054518893 -0.6742102466
C 0.9029614026 2.2499366484 -0.1493912170
N 0.7109313439 2.7009631988 1.2122308079
C -0.1234463963 3.9239403466 1.3456835456
C -1.2722015903 3.7582487506 0.3831395876
C -1.3608847722 2.7500415337 -0.4852235175
H -0.5377910063 3.8575443168 2.3587064316
H 1.5860923334 2.7949251620 1.7148715355
H -2.2065623476 2.5467086473 -1.1320269607
H -2.0943163363 4.4580490127 0.4588939295
H 1.2458621366 3.0448590909 -0.8340531589
N 1.4925015897 -0.0876072135 -0.4375757939
C 1.9058177223 1.1077813700 -0.2161314294
C 3.3516087041 1.5191529842 -0.0429469255
C 4.3191266925 0.3514525013 0.2229068952
C 3.9150071065 -0.7544963482 -0.7689886979
C 2.4786821847 -1.1947665935 -0.5066662240
H 4.1172779334 -0.0070432088 1.2414445922
H 4.0009318804 -0.3849871552 -1.7994351773
H 4.5705958960 -1.6235996074 -0.6935842085
H 3.6329450790 2.0587295203 -0.9617158453
H 3.4048575466 2.2711775737 0.7502987535
H 2.3845745705 -1.7501597002 0.4334785189
H 2.1301213094 -1.8856999790 -1.2821296168
C 5.8330504464 0.7860360027 0.2067247795
C 6.3783113331 0.8085192759 -1.2358829727
C 6.0013343672 2.2017833597 0.8098944232
C 6.6825738386 -0.2232003775 1.0825608724
N 6.2424451506 -0.1705344114 2.4746137185
O 6.4773345057 -1.5858269093 0.6675087277
N 8.0882570691 0.0949747228 0.9525007056
H 5.7088609114 1.3698402852 -1.8991219535
H 7.3488625143 1.3112010960 -1.2778959428
H 6.4912832273 -0.2001415468 -1.6443906271
H 5.4774385854 2.3132164206 1.7665429682
H 7.0624803417 2.4031060447 0.9746808816
H 5.6202386127 2.9726319973 0.1314645202
H 6.7754090379 -0.8630316827 3.0027519045
H 6.4760346450 0.7336982221 2.8801079782
H 5.7164180221 -1.9132064710 1.1756298020
H 8.6202717633 -0.5268667385 1.5606279441
H 8.4110986665 -0.0981617011 0.0059305346
C 0.6473372142 5.3089482804 1.3158412275
C 1.9996050208 5.1384150579 2.0420480788
C 0.9189070550 5.8232258079 -0.1113289403
C -0.1750673649 6.3914974770 2.1376747535
N -1.5350918430 6.5338792149 1.6009716546
O -0.3156369709 5.9652175777 3.4868851855
N 0.6009116276 7.6269667956 2.2172205613
H 2.7047945518 4.5561288451 1.4368909987
H 2.4451277759 6.1193671025 2.2153599910
H 1.8777737206 4.6573886711 3.0187836891
H 0.0114028895 5.9173675063 -0.7187282472
H 1.4166843421 6.7970107473 -0.0707622155
H 1.5938825999 5.1517610789 -0.6537145877
H -1.9757607986 7.3312769392 2.0626884114
H -1.5132759464 6.7585147332 0.6074910423
H -1.2082084244 5.5905437635 3.5568463092
H 0.3714978749 8.2589082368 1.4554000947
H 0.3868549108 8.0914646359 3.0967780789
O -0.4872111124 -3.1380618056 -0.3095877202
C -0.2932526715 -3.4162162555 1.0832979285
N 1.1096207129 -3.6729605497 1.3269674110
C 1.6422764694 -4.9008386213 0.6807510109
C 1.0396251963 -4.9528018236 -0.7007885627
C 0.1022537158 -4.1024592809 -1.1209421205
H 2.7138295237 -4.6986723351 0.5626997166
H 1.3349896369 -3.6488826344 2.3154200182
H -0.3128199849 -4.0777513342 -2.1222099388
H 1.4345399497 -5.6862194431 -1.3920122477
H -0.9428449853 -4.2800243264 1.3054819833
N -0.9503369480 -1.0950035860 1.3202511251
C -0.7808810805 -2.2279187960 1.8992688954
C -1.0427320766 -2.5132689167 3.3602101740
C -1.1866805824 -1.2491237748 4.2271932078
C -2.1080079201 -0.3076199119 3.4292878322
C -1.4803402125 0.0580310463 2.0869400897
H -0.1908148969 -0.7895667058 4.2927839168
H -3.0721595589 -0.8013924728 3.2508761187
H -2.3245433578 0.6080253843 3.9813486095
H -1.9554963051 -3.1295869470 3.4053244517
H -0.2454120077 -3.1678231065 3.7288492575
H -0.6540281993 0.7730163726 2.1873378382
H -2.2213007580 0.5480695406 1.4446213062
C -1.6280278616 -1.5543908399 5.7066104746
C -3.1601055690 -1.7127671690 5.7959174853
C -0.9784283955 -2.8649434883 6.2113351342
C -1.1550297642 -0.3763062140 6.6543268255
N 0.3037439521 -0.3009034279 6.6722246465
O -1.5987953590 0.9053955121 6.1745317888
N -1.6954315427 -0.5868024903 7.9804209234
H -3.5254016037 -2.4123266855 5.0342278039
H -3.4536969579 -2.1283634528 6.7642536038
H -3.6786495014 -0.7595771204 5.6554212999
H 0.0994028597 -2.9021549324 6.0125040712
H -1.1304413590 -2.9540709410 7.2896656165
H -1.4324333501 -3.7433965209 5.7401483946
H 0.5720031050 0.4948224210 7.2527807101
H 0.6917191488 -1.1257404409 7.1258405976
H -0.9106304092 1.2191226676 5.5640014912
H -1.3433306336 0.1442683541 8.5976119388
H -2.7084473958 -0.4825876009 7.9734934185
C 1.5783900724 -6.2326696728 1.5392321094
C 1.8845235525 -5.8840333220 3.0117535111
C 0.2061113188 -6.9309387466 1.4718913721
C 2.7243135048 -7.2260652256 1.0592877871
N 2.5840123327 -7.5322784450 -0.3705352402
O 3.9918918909 -6.6009941774 1.2173284643
N 2.7631551883 -8.3838629372 1.9478101714
H 1.0432570672 -5.3601487595 3.4818478169
H 2.0549951651 -6.8046456782 3.5720434466
H 2.7884830542 -5.2717369678 3.1038032705
H -0.1113555485 -7.1639556240 0.4492273446
H 0.2234125498 -7.8580693381 2.0534404957
H -0.5786356572 -6.3051795501 1.9109074674
H 3.2446219308 -8.2759842249 -0.6025180772
H 1.6572033929 -7.9039273124 -0.5720517700
H 4.2491504292 -6.2927657767 0.3337885073
H 2.1734399359 -9.1364380620 1.6041437757
H 3.7208141925 -8.7226944576 2.0028265484
O -2.5605831496 -1.0170295697 -1.3359786843
C -2.9433037579 -0.5460297477 -2.6580457887
N -3.7054238765 0.6602105581 -2.4922083285
C -5.0367318497 0.4669136542 -1.8626661105
C -4.8468102792 -0.5554355904 -0.7688294862
C -3.6912073834 -1.1669217883 -0.5152482607
H -5.2529928709 1.4216594567 -1.3674707949
H -3.7564972145 1.2235703687 -3.3325979815
H -3.4926944761 -1.8507837306 0.2987683622
H -5.6949487540 -0.7469929855 -0.1227852485
H -3.5122421559 -1.3868709621 -3.0862884720
N -0.5592782189 -0.3773928785 -2.8519313145
C -1.6823575807 -0.3292667776 -3.4720764124
C -1.8695429662 -0.1016537453 -4.9534900308
C -0.6179636305 0.4561647215 -5.6602304047
C 0.5672720535 -0.3625669132 -5.1144776423
C 0.6980091988 -0.1805683486 -3.6056709734
H -0.5010832246 1.4986787257 -5.3341177404
H 0.4169380778 -1.4279861617 -5.3312594534
H 1.5075760140 -0.0797037688 -5.5900815502
H -2.1671090671 -1.0699715546 -5.3869491520
H -2.7367735732 0.5505936621 -5.0995218138
H 1.0482339380 0.8263607878 -3.3457430529
H 1.4287944428 -0.8820786747 -3.1935492132
C -0.7613857349 0.5002881263 -7.2262726873
C -0.4293619109 -0.8742068852 -7.8448055072
C -2.2073316824 0.8726071210 -7.6332883159
C 0.2155115814 1.5996690068 -7.8178497161
N -0.1553540641 2.9208302713 -7.3171788896
O 1.5702590198 1.3867253284 -7.3845394680
N 0.1730468672 1.5446672820 -9.2634057562
H -0.9774587757 -1.6767351083 -7.3363769396
H -0.7331614184 -0.9098820521 -8.8948234827
H 0.6390140357 -1.1029243556 -7.7844546266
H -2.5907878689 1.7441636215 -7.0883584692
H -2.2334021294 1.1004627011 -8.7012324279
H -2.8981240923 0.0412171545 -7.4557561264
H 0.5046316701 3.6027366251 -7.6942342077
H -1.0701711658 3.1866539756 -7.6765951657
H 1.6786347115 1.9030915991 -6.5684613756
H 0.7639222105 2.2879440145 -9.6348373536
H 0.5791543644 0.6729488670 -9.5993592374
C -6.2441861996 0.2534885886 -2.8632743268
C -6.0790740049 1.2563773254 -4.0271484351
C -6.3066748170 -1.1731437108 -3.4424094213
C -7.6173848008 0.6106835432 -2.1432366512
N -7.8328984221 -0.2473059880 -0.9708161377
O -7.5763012365 1.9504364290 -1.6697988298
N -8.6953693805 0.5944926581 -3.1300815338
H -5.2657945254 0.9561757155 -4.6986982895
H -6.9964978738 1.2820362442 -4.6170596747
H -5.8917914108 2.2716768015 -3.6614101457
H -6.3242911817 -1.9521451099 -2.6714364664
H -7.1931300578 -1.2829692766 -4.0746681584
H -5.4432666026 -1.3775586339 -4.0860263787
H -8.7775734427 -0.0746698412 -0.6228623583
H -7.8032647580 -1.2316132977 -1.2327604088
H -7.3682527134 1.8996678408 -0.7231532111
H -9.1816497310 -0.2973874409 -3.1404313076
H -9.3640059340 1.3243623417 -2.8957108858
