127
# extracted from Terachem optimization
Cr -0.1129696364 -0.6086909983 -0.0684613977
O -0.2132339267 2.0227606680 -0.1072485601
C 1.1568845151 2.3813547959 -0.2463811082
O 1.2615593898 3.7021492589 0.1829319170
C 0.1458608970 4.2987928446 -0.5224955173
C -0.9674738051 3.2564876380 -0.3218860231
H -1.5694120193 3.4445743718 0.5637773527
H -1.5993366670 3.1547778344 -1.2040234690
H 0.4216106351 4.3582077792 -1.5798484019
H 1.4429979113 2.3298548128 -1.3123761959
N 1.7641309975 0.1442187794 0.4980322472
C 2.0549710732 1.4033065266 0.4849821982
O 3.1415373380 1.9694475811 0.9638455024
C 4.3515224016 1.1718050107 1.2752859164
C 4.1749841994 -0.2692966592 0.8310416486
C 2.7575993316 -0.7445307806 1.1449246912
H 4.4681037917 1.2551188047 2.3558045854
H 4.3609890714 -0.3528265061 -0.2436532844
H 4.9155406298 -0.8874934991 1.3441145281
H 2.5706060714 -0.7382111026 2.2266879677
H 2.5963574866 -1.7648854001 0.7943073733
C 5.4862234510 1.9679094203 0.5786968951
O 5.2640035086 1.9472310799 -0.8126542537
O 5.4860530900 3.2828283595 1.0633828041
C 6.8896308076 1.4218024621 0.9398821386
O 6.9780803463 1.0420258196 2.2926153005
O 7.0949185580 0.2912618199 0.1362463569
H 5.9737478731 1.4149374636 -1.2137108723
H 4.6337237380 3.6826891966 0.8218181564
H 7.6126444486 2.2183173424 0.7101141717
H 7.2498828530 1.8153121256 2.8136745589
H 7.9957906351 -0.0360365675 0.2968080874
C -0.0994438961 5.7246771429 -0.0196405819
O -0.7507348754 5.6378088110 1.2189800296
O 1.1087746433 6.4410524624 0.0680401521
C -0.9316608988 6.5152700627 -1.0635716342
O -0.2008188231 6.7174457501 -2.2682206147
O -2.0603692028 5.7632992439 -1.3612536733
H -0.7934859743 6.5342185115 1.5943722264
H 1.7398567626 5.9019970975 0.5754175073
H -1.1861079453 7.4963222581 -0.6293335616
H 0.6311748779 7.1662457633 -2.0297275592
H -2.5978811930 6.2565928384 -2.0029593838
O -0.0565740324 -3.0219934474 0.0800995259
C -0.3831450307 -3.5294367555 1.3600092108
O 0.6814098097 -4.3520786184 1.7424876204
C 1.0995244960 -5.0354947649 0.5392695741
C 0.6677373091 -4.0848993412 -0.6030144983
H 1.5093277586 -3.6322784912 -1.1206258411
H 0.0038729963 -4.5783404465 -1.3158159550
H 0.5878033909 -6.0000149673 0.4732861789
H -1.3229927317 -4.1058119366 1.3083575815
N -0.4898367612 -1.1560989503 1.9391259562
C -0.5485968065 -2.3803925495 2.3408266278
O -0.7849914258 -2.8204171338 3.5588558860
C -1.0216713212 -1.8607273634 4.6586626963
C -1.6130531474 -0.5852336425 4.0885921401
C -0.7592150495 -0.0839255152 2.9239475838
H -0.0463795978 -1.6897792827 5.1190198112
H -2.6373302121 -0.7763999137 3.7513095535
H -1.6606458168 0.1695472852 4.8769749075
H 0.2041199644 0.3070935740 3.2731997156
H -1.2726471825 0.7193706620 2.3906952398
C -1.9008308736 -2.6529108094 5.6631334379
O -3.1730550204 -2.8826767374 5.1073613269
O -1.2690096936 -3.8669207154 5.9627660697
C -2.0136847850 -1.9395892907 7.0316764355
O -0.7692916236 -1.4783360640 7.4978493700
O -2.8650794244 -0.8420178246 6.8431517323
H -3.7959769052 -2.2723899786 5.5399531942
H -1.2817028997 -4.4184707735 5.1632496419
H -2.4464680443 -2.6707643090 7.7311441160
H -0.3188634645 -2.2168917200 7.9401977846
H -3.0068325140 -0.4177792462 7.7059950137
C 2.6056036236 -5.3122540159 0.6614232131
O 3.2800309541 -4.0804997189 0.5027558751
O 2.9064971333 -5.9073414556 1.8963816977
C 3.0547360787 -6.3564742007 -0.3880656321
O 2.4098714478 -7.5887001498 -0.1885892612
O 2.6829402413 -5.8771895197 -1.6454040094
H 4.2278581669 -4.2561979124 0.6304850505
H 2.4821724457 -5.3797365756 2.5952447516
H 4.1509553309 -6.4748094911 -0.3025510696
H 2.7137145582 -7.9532855100 0.6604930943
H 2.8070713289 -6.6058613334 -2.2771816573
O -2.1659583372 -1.0094445050 -0.6807308176
C -2.5636675194 -0.3263538696 -1.8688414492
O -3.4419320154 0.6769462088 -1.4547761919
C -4.2423116394 0.0894255860 -0.4008748995
C -3.3764512929 -1.0800100364 0.1285164507
H -3.0789079021 -0.9670738592 1.1629825369
H -3.8541510885 -2.0490942940 -0.0322976501
H -5.1845672613 -0.2724866652 -0.8212238606
H -3.0723563800 -1.0402493065 -2.5380929105
N -0.1624520286 -0.1859942416 -2.1925915673
C -1.3318291419 0.2240743489 -2.5538442913
O -1.6183791050 1.0919352757 -3.5026366006
C -0.4630420474 1.9107919828 -3.9127336913
C 0.6279390233 0.9386063414 -4.3209681949
C 0.9907960932 0.0959930813 -3.0848205549
H -0.1741129182 2.4679047448 -3.0204547174
H 0.2501463613 0.3167321140 -5.1386850052
H 1.5059411332 1.4750068786 -4.6887233212
H 1.7669531702 0.5868661012 -2.4913018427
H 1.3966454708 -0.8781462962 -3.3787776552
C -1.0041480458 2.9341201404 -4.9350661482
O -1.3391371041 2.2991838235 -6.1373834920
O -2.1442338696 3.5454790708 -4.3761963235
C 0.0000189173 4.0943133334 -5.1676916644
O 0.5963153058 4.5447297588 -3.9791991078
O 0.9871353719 3.5754576899 -6.0235849570
H -0.6453333744 2.5059043948 -6.7892411127
H -2.8898148064 2.9419810862 -4.5327551159
H -0.5646221220 4.9046533816 -5.6508091788
H 0.1205202799 5.3197139874 -3.6140239328
H 1.6005239593 4.2915452342 -6.2575227009
C -4.5740317273 1.1929674086 0.6154611041
O -3.3893109046 1.4904986291 1.3301417200
O -5.0859731018 2.3318292113 -0.0221616452
C -5.7142725241 0.7404919490 1.5608839135
O -6.8970106369 0.4858980113 0.8496506980
O -5.3164897520 -0.4545141081 2.1685902194
H -3.5919506576 2.2463527782 1.9080415546
H -4.4919522231 2.5610421480 -0.7581812688
H -5.8733625199 1.5413580506 2.3065090096
H -7.2105558233 1.3267521170 0.4740655707
H -6.1085344664 -0.8375992962 2.5831488763
