121
# extracted from Terachem optimization
Cr 0.0988245441 0.0471299065 -0.2925803340
N 0.3680038198 2.1483449298 -0.5100571377
C 0.5899693861 2.7428068523 -1.6766355170
S 0.8491176624 4.4285754332 -1.5773534580
C 0.6615794411 4.3757494352 0.1604547504
C 0.4125971634 3.0806934897 0.5250256976
H 0.2750368756 2.7507360351 1.5428669034
H 0.6158573925 2.2267839571 -2.6239318337
C 0.7898001390 5.5841833517 1.0458944991
C -0.3968568812 6.5955201206 1.0244254590
C -0.5325905520 7.3409015852 -0.3100165225
C -1.7176155326 5.9459933193 1.4553206344
H 0.9174708483 5.2140939806 2.0702648279
H 1.7130884046 6.1176727434 0.7893261381
H -0.1240321783 7.3367031511 1.7863961565
H -0.8813771955 6.6879817496 -1.1210805138
H -1.2691784463 8.1451279838 -0.2173023928
H 0.4134574058 7.8008637469 -0.6181273456
H -1.6300155159 5.4571763438 2.4332704397
H -2.5054165914 6.7013611050 1.5350092324
H -2.0546964774 5.1971710773 0.7248506165
N 2.1778023790 -0.1300095299 0.0817518498
C 3.0373467025 0.8794101732 0.1462010427
S 4.6610808736 0.4162644629 0.3990187611
C 4.1975750671 -1.2690140507 0.4219122336
C 2.8434619785 -1.3446585784 0.2388487512
H 2.2957335319 -2.2735439202 0.1973501568
H 2.7511785367 1.9163866637 0.0633286170
C 5.1766227267 -2.3974510336 0.5937201225
C 5.7295158899 -2.6281319613 2.0331934536
C 6.6571522153 -1.5032801072 2.5097478909
C 4.6092761796 -2.9163182875 3.0404634225
H 4.6686313260 -3.3111261403 0.2621908135
H 6.0215476935 -2.2452566664 -0.0884276256
H 6.3373907973 -3.5369310853 1.9394403029
H 6.1179772434 -0.5646672734 2.6943055737
H 7.1342678741 -1.7810691824 3.4549819983
H 7.4587889110 -1.3044739395 1.7889968338
H 3.9652301216 -3.7386818520 2.7057055498
H 5.0300588263 -3.1998601574 4.0099850629
H 3.9799049728 -2.0300541310 3.2022620258
N -0.1520042143 -2.0557991182 -0.0709670106
C -0.3669727559 -2.6483119758 1.0977452916
S -0.5560627731 -4.3440132397 1.0093892973
C -0.3347309235 -4.2992870803 -0.7246437965
C -0.1304729072 -2.9988642017 -1.0972042760
H 0.0426540616 -2.6773212001 -2.1125497088
H -0.4164099771 -2.1277538536 2.0421393892
C -0.3720348645 -5.5233117539 -1.5970530047
C -1.7816235960 -6.1291465534 -1.8789083965
C -2.4385771124 -6.7395849187 -0.6342843247
C -2.7063508218 -5.1298857363 -2.5846695056
H 0.0887633008 -5.2463761618 -2.5527457749
H 0.2658511626 -6.2987530306 -1.1563453167
H -1.5800653040 -6.9505666561 -2.5781421254
H -2.7621707515 -5.9785574752 0.0882809103
H -3.3347705842 -7.3002266343 -0.9184922989
H -1.7690515844 -7.4396707132 -0.1209362072
H -2.2626957173 -4.7529386157 -3.5140887440
H -3.6586764100 -5.6029611348 -2.8422857040
H -2.9330291381 -4.2702209881 -1.9380002584
N -1.9827531552 0.2064785150 -0.6838620217
C -2.8234864831 -0.8168759632 -0.7736333803
S -4.4375881910 -0.3832808227 -1.1223448892
C -3.9959593739 1.3082552438 -1.1606304506
C -2.6543256123 1.4084580880 -0.9049660340
H -2.1169827717 2.3444659377 -0.8703740156
H -2.5269490667 -1.8472475590 -0.6517629877
C -4.9769893988 2.4100264208 -1.4506113535
C -5.9549956264 2.7921469124 -0.2977823590
C -6.9632210430 1.6838798436 0.0331452469
C -5.2136675107 3.2800128807 0.9528679840
H -4.3908545685 3.2958418256 -1.7233944046
H -5.5639061580 2.1407586572 -2.3369592140
H -6.5215075306 3.6404627188 -0.7027616974
H -6.4889555902 0.8202809705 0.5174313838
H -7.7174882398 2.0598599864 0.7313349809
H -7.4937559877 1.3332393636 -0.8597376394
H -4.5430695902 4.1186078683 0.7290026309
H -5.9260414522 3.6214506259 1.7099389860
H -4.6196260635 2.4742672746 1.4080569960
N -0.2766840601 0.3185115427 1.7759196556
C -1.4198070794 0.7760494054 2.2732121975
S -1.4421002795 0.9288244849 3.9734224419
C 0.2004156338 0.3348590024 4.0689581536
C 0.6378075286 0.0731146297 2.7985999752
H 1.6206958593 -0.3063693492 2.5611280999
H -2.2720669646 1.0480004114 1.6677206732
C 0.9404031524 0.1740378297 5.3676940078
C 0.5818923010 -1.0838869010 6.2171816612
C -0.8509372595 -1.0544615673 6.7642489181
C 0.8836967349 -2.3902409422 5.4739617907
H 2.0097488598 0.1440013577 5.1268130506
H 0.7851031796 1.0694363850 5.9811546151
H 1.2628675863 -1.0228613577 7.0758348265
H -1.6012816989 -1.1900409882 5.9742098681
H -0.9980419602 -1.8688708490 7.4805580336
H -1.0677248134 -0.1174280307 7.2901322004
H 1.9197251874 -2.4252135149 5.1153993211
H 0.7352827969 -3.2494533405 6.1353327446
H 0.2152923616 -2.5267763794 4.6114243355
N 0.4450540502 -0.2290295518 -2.3744687965
C -0.4865232683 -0.0627885219 -3.3077368692
S 0.0391403178 -0.3837835045 -4.9004308496
C 1.6367347969 -0.7870088452 -4.3131942930
C 1.6432651009 -0.6409933028 -2.9524485371
H 2.5001893878 -0.8402104955 -2.3267772413
H -1.4942108351 0.2676805382 -3.1045546848
C 2.7588457397 -1.2370274944 -5.2071071625
C 3.3865423979 -0.1612314649 -6.1450905576
C 2.4309967579 0.3129528363 -7.2478060199
C 3.9852601563 1.0126100705 -5.3602764004
H 3.5444398247 -1.6328246524 -4.5524711220
H 2.4095559106 -2.0773628800 -5.8198236995
H 4.2125737349 -0.6930919094 -6.6339755937
H 1.6262064767 0.9501726830 -6.8579667497
H 2.9735458227 0.9152066937 -7.9833340124
H 1.9791707981 -0.5275572506 -7.7875300763
H 4.6965186921 0.6701701353 -4.5988459179
H 4.5239021017 1.6867973864 -6.0331341500
H 3.2056411485 1.6049129469 -4.8615484397
