133
# extracted from Terachem optimization
Cr 0.2071610093 -0.0006846173 0.1323749765
N 0.5506976487 2.0344329968 -0.0792204363
C 1.7920590212 2.3607065461 -0.3215160235
O 1.9338412331 3.6382491556 -0.6733719852
C 0.6445297773 4.1898333226 -0.6581652308
C -0.1951049094 3.1934789698 -0.2834529840
H -1.2658596936 3.2260061988 -0.1913978090
O 2.3134399425 0.0990528519 -0.1600468446
C 2.9435890763 1.3991882095 -0.2897875916
C 3.9305588566 1.6674233357 0.8223329566
C 4.4062329633 0.7114184854 1.6308296651
C 3.9506776969 -0.7250318171 1.4645037090
C 3.2979244767 -0.9503339996 0.1137181247
H 4.2601926391 2.6988014174 0.9148558377
H 3.4478442138 1.4308260095 -1.2698545612
H 2.7330188627 -1.8815817627 0.0618698512
H 4.0283629946 -0.9281732299 -0.7029098857
H 4.8126187341 -1.3918162108 1.5777213661
H 3.2445319923 -0.9873732938 2.2649218984
C 5.4011685084 1.0122182305 2.7549627254
N 5.6131421151 2.4116351294 3.0911936104
C 6.8045045988 0.3566301072 2.5241241452
O 6.7255616577 -1.0721287567 2.5786936771
C 7.4568248280 0.7212837402 1.1948045482
H 5.0033231774 0.5260190346 3.6593937053
H 6.0758880462 2.9245392422 2.3450617193
H 4.7443877224 2.8909941160 3.3125318607
H 7.4282926920 0.7314873554 3.3442444834
H 6.8779691064 -1.3556383217 3.4928947677
H 7.5682323218 1.8049520068 1.0787089887
H 8.4530831272 0.2745346388 1.1458804475
H 6.8723830718 0.3411601391 0.3498550553
C 0.4983082004 5.6128968207 -1.1430616103
N 1.4690856563 6.5622973011 -0.6162028341
C -0.9547937637 6.1432414047 -0.9348500438
O -1.9199534253 5.1919530896 -1.3599717548
C -1.2725815608 6.5080377039 0.5118717048
H 0.6648124933 5.5770783215 -2.2302691902
H 1.4720065650 6.5756093106 0.4004954792
H 2.4138379692 6.3593187766 -0.9314128139
H -1.0127244347 7.0594481479 -1.5398927083
H -1.8441500198 5.0326587331 -2.3333705681
H -0.6415582381 7.3308710867 0.8597365615
H -2.3145651565 6.8335343791 0.5719354085
H -1.1478767130 5.6524154682 1.1863812536
N 0.0092611085 -2.0792756823 0.3639315233
C -0.0966998179 -2.6271801206 1.5478660218
O -0.2554303517 -3.9523674528 1.4824956721
C -0.2489400073 -4.2927510377 0.1309897481
C -0.0904662559 -3.1314680910 -0.5534703581
H -0.0508250939 -2.9667369899 -1.6169544543
O 0.1013418978 -0.5576956381 2.6340751112
C -0.1294757120 -1.9436708013 2.8870786388
C 0.8546278247 -2.5236283355 3.8823785359
C 1.5800219025 -1.7554824644 4.7065932815
C 1.4643745466 -0.2452621586 4.6429050597
C 0.2324755216 0.1948307871 3.8676428040
H 0.9089320873 -3.6077136947 3.9277422058
H -1.1575821550 -2.0649345025 3.2782825624
H 0.2838163918 1.2392160010 3.5547678595
H -0.6823195923 0.0498388933 4.4569672070
H 1.4307708564 0.1555386270 5.6616098617
H 2.3720890957 0.1710893776 4.1812260523
C 2.5601489244 -2.3386708276 5.7266068394
N 2.9080743950 -3.7457112322 5.5773484906
C 2.1150019037 -2.1088903604 7.2110531401
O 2.1270907960 -0.7199657394 7.5502667117
C 0.7197689722 -2.6314257942 7.5349899113
H 3.4974003904 -1.7705653963 5.6176133207
H 2.1206313363 -4.3583474699 5.7757125729
H 3.2361746703 -3.9564340418 4.6381693196
H 2.8520888911 -2.6534730141 7.8137724719
H 3.0214888751 -0.4801397409 7.8372258216
H 0.6209372782 -3.7000954585 7.3149099695
H 0.5184729626 -2.4886766806 8.5998257024
H -0.0445960871 -2.0883227416 6.9690933224
C -0.4442445887 -5.7599412942 -0.2062568685
N 0.0112409942 -6.6945163444 0.8101421370
C 0.1884035076 -6.1174438776 -1.5805010381
O -0.3026107211 -5.2279613787 -2.5905573078
C 1.7108603628 -6.0531919939 -1.6030541100
H -1.5268762747 -5.9194171420 -0.3124443760
H 0.9811046778 -6.5364232168 1.0707848302
H -0.5526156876 -6.6462288921 1.6537837869
H -0.1215516555 -7.1479930465 -1.7892667525
H -1.1424628319 -5.5792346068 -2.9247937842
H 2.1433112131 -6.7702906719 -0.8986985815
H 2.0666644373 -6.3090737665 -2.6044642990
H 2.0759241435 -5.0486175685 -1.3604669565
N -1.8501496474 0.3235072057 -0.0517593297
C -2.4166526336 0.5270729965 -1.2127545799
O -3.7138201746 0.8316572083 -1.0988220683
C -4.0098142019 0.8293259256 0.2619653079
C -2.8570375279 0.5065773370 0.9015959517
H -2.6748245003 0.3970305863 1.9567817688
O -0.4727810537 0.0029516285 -2.4427511362
C -1.8120368757 0.4680513178 -2.5898859818
C -1.8935758646 1.8114126710 -3.2997926463
C -0.8834290244 2.2988757381 -4.0305516122
C 0.4061439068 1.5140650207 -4.1619790811
C 0.2421791356 0.0732075038 -3.6983061859
H -2.8339632159 2.3408725800 -3.1811096588
H -2.3916009759 -0.2806174380 -3.1609054194
H 1.2027904600 -0.4112655547 -3.5126611390
H -0.3059917627 -0.5183992789 -4.4434517855
H 0.7329749761 1.5269446631 -5.2071443265
H 1.1951428983 2.0183359751 -3.5832954891
C -0.9354461020 3.6324696478 -4.7612655407
N -1.9305680929 4.5549612607 -4.1809957325
C -1.1056476840 3.4775145961 -6.3159640955
O 0.0376667193 2.8547591425 -6.9007561931
C -2.3248290167 2.6663545102 -6.7363109557
H 0.0439850182 4.1118738414 -4.6179026097
H -1.8873605317 5.4428502949 -4.6828486812
H -2.8754801501 4.2065879701 -4.3444292539
H -1.2085220999 4.5012725145 -6.7082394685
H 0.7069773962 3.5318842344 -7.0850574283
H -3.2495801369 3.0709176671 -6.3101049580
H -2.4185089775 2.6867329019 -7.8249233154
H -2.2241022149 1.6230785500 -6.4218829823
C -5.4417055012 1.1455439478 0.6531109290
N -6.1468794391 2.0326104677 -0.2582476578
C -5.5244521208 1.7002173664 2.1037696773
O -4.8617406885 0.8064552403 3.0072710677
C -4.9062377072 3.0818376961 2.2792356087
H -5.9911076850 0.1932269579 0.6515168457
H -5.6281922437 2.8893245187 -0.4339788238
H -6.3355739307 1.5895189103 -1.1528376055
H -6.5939537892 1.7608708492 2.3368210947
H -5.4846249920 0.1044790196 3.2519202632
H -5.4289380392 3.8245973069 1.6691401441
H -4.9930377227 3.3833894705 3.3264340375
H -3.8438143574 3.0853578223 2.0113797694
