103
# extracted from Terachem optimization
Cr -0.1125920607 -0.0072033538 -0.0325610630
O 0.3761072726 1.9653194651 0.5034455231
C 1.6877768107 2.4315463653 0.0763428493
C 1.9528990167 3.6411956115 0.9674150325
C 0.5504192148 4.2801873247 1.0717393410
C -0.4099851273 3.0794058521 1.0313230834
H -0.7574238081 2.7786739147 2.0223376731
H -1.2793673712 3.2418221463 0.3932642347
H 0.3782113388 4.9227885296 0.2046025067
H 2.6836641693 4.3324675241 0.5434628911
H 2.2959486632 3.3210208655 1.9560708634
H 1.6053789532 2.7360536223 -0.9776399213
N 2.0101569455 0.0395880743 0.0697477039
C 2.6109966730 1.2448643324 0.1938158815
C 3.9845743310 1.3834427121 0.3971625354
C 4.7907059307 0.2466532665 0.4628126702
C 4.1630451957 -1.0005543383 0.3610707693
C 2.7938076542 -1.0595902936 0.1722826977
H 4.4139096361 2.3705284635 0.5225573514
H 2.2888132375 -2.0142015724 0.0973491475
H 4.7411046812 -1.9148763022 0.4254516535
C 6.2931215693 0.3120779571 0.7475422129
N 6.7813558130 1.6382262798 0.8390285671
O 6.5905090381 -0.4036551860 1.9059538000
Cl 7.1200463797 -0.6677476191 -0.6260915979
H 7.7720406038 1.6241509526 1.0781745798
H 6.6822326508 2.1502532867 -0.0347957763
H 6.5066138019 0.2176377725 2.6524170665
C 0.4098020629 5.1721335555 2.3118639363
N 0.4807757974 4.4690376525 3.5472830633
O 1.3553002459 6.1545348634 2.2057718330
Cl -1.3547391383 5.9937198797 2.1413031379
H 0.8198158270 5.0657018319 4.2982613388
H -0.4143769515 4.0826725593 3.8315790013
H 1.1868925263 6.8614382055 2.8536138918
O -0.2782777734 -2.0290212140 -0.1249654812
C -1.0206467186 -2.6881104142 0.9438377578
C -0.4984890599 -4.1228827702 0.8948312169
C -0.3616911256 -4.3676801623 -0.6253178698
C -0.0035020877 -2.9876587675 -1.2013344759
H 1.0542545528 -2.9054539933 -1.4498658506
H -0.6120890829 -2.7110012634 -2.0632674102
H -1.3229124311 -4.7033721893 -1.0238655826
H -1.1724805469 -4.8408179304 1.3659472535
H 0.4772259181 -4.1713337244 1.3881784860
H -2.0880193421 -2.6607030310 0.6801571782
N -0.3447609607 -0.6187834062 1.9938044867
C -0.7717170961 -1.8823589531 2.1971266630
C -0.9668691759 -2.4120098228 3.4738229213
C -0.7167043570 -1.6158291449 4.5916381969
C -0.2156466236 -0.3247851705 4.3764222761
C -0.0436547431 0.1265650584 3.0804278913
H -1.2870050349 -3.4413430709 3.5871475612
H 0.3594515672 1.1109500074 2.8747736699
H 0.0343636608 0.3116674067 5.2172496225
C -0.8793411310 -2.1199023592 6.0264845217
N -1.2767610614 -3.4760225287 6.1005791315
O 0.2884021537 -1.9093500927 6.7552620063
Cl -2.1308174208 -0.9534633292 6.8137823986
H -1.3220485037 -3.7673172338 7.0762205698
H -2.1927811883 -3.6380534563 5.6885862093
H 0.8431280405 -2.7027454967 6.6405232377
C 0.6665099556 -5.4574505560 -0.9761714241
N 2.0038998580 -5.1333288868 -0.5194043863
O 0.1462725894 -6.6331623925 -0.4718503717
Cl 0.7550306236 -5.5249380953 -2.8394348837
H 2.1680483237 -5.5959573613 0.3733907105
H 2.7156273114 -5.4455937541 -1.1745885726
H 0.7160854834 -7.3812024278 -0.7259443307
O -2.1215570914 0.3324720221 -0.2846344540
C -2.5976342936 0.3464432971 -1.6589011526
C -3.6102758554 1.4928727186 -1.6703084644
C -4.2974531302 1.3537978198 -0.2945523584
C -3.2196626340 0.7217394016 0.6059384262
H -2.8064591022 1.4196081836 1.3324144896
H -3.5749285605 -0.1750333958 1.1176332119
H -5.1543147399 0.6809248338 -0.3813272730
H -4.3238797340 1.4257877602 -2.4935746606
H -3.0753930624 2.4449996818 -1.7443987339
H -3.1093412603 -0.6099025008 -1.8432799629
N -0.1854769626 0.3149807959 -2.0999378868
C -1.4264483303 0.4697339576 -2.6092152587
C -1.6473186639 0.7109306597 -3.9695388911
C -0.5643161551 0.7823233575 -4.8434237082
C 0.7232454232 0.6259641148 -4.3073328855
C 0.8646091359 0.3978596552 -2.9531700526
H -2.6566010970 0.8642678865 -4.3342767979
H 1.8380895576 0.2628257333 -2.4978637188
H 1.5961051074 0.6811060182 -4.9473597184
C -0.7232084634 1.1338562836 -6.3256208847
N -2.0782638972 1.2468334940 -6.7244413276
O -0.0266107059 2.3081290787 -6.6035503670
Cl 0.1986171818 -0.1967510249 -7.2732230623
H -2.1250116620 1.5320386905 -7.7020149982
H -2.5815948361 0.3663430307 -6.6382254660
H -0.6498317367 3.0467699022 -6.4768826018
C -4.8396567101 2.6960683855 0.2308432296
N -3.8036384130 3.6963935676 0.3963030679
O -5.8439904970 3.0566523439 -0.6425799535
Cl -5.5325629445 2.3604339311 1.9362116757
H -3.8444343667 4.3593257527 -0.3756323574
H -3.8874707760 4.2153474275 1.2657161539
H -6.2864227442 3.8625934926 -0.3208182294
