130
# extracted from Terachem optimization
Cr -0.0009008985 -0.1223505764 -0.1293828922
O 0.0963076412 1.8627770770 -0.2700233693
C 1.3711502261 2.3853527452 -0.7807412323
O 1.7123884943 3.5303994962 -0.1101884392
C 0.7959932309 4.6461328695 -0.2610900278
C -0.6612493408 4.1768154627 -0.0514323254
C -0.9818938358 2.8098012040 -0.6449840182
H 1.0460633827 5.2773743178 0.5947984834
H 1.2413650937 2.5653639230 -1.8559806329
H -1.8947413401 2.3748553960 -0.2417337704
H -1.0315449298 2.8167488406 -1.7345820588
H -1.3513601624 4.9163783590 -0.4667900112
H -0.8428941658 4.1359376352 1.0276871567
N 1.9865872066 0.0894313330 -0.4045266865
C 2.4225989257 1.3080896002 -0.5707221315
S 4.0388010357 1.9049530575 -0.6639161859
C 5.0471989939 0.3208210473 -0.6982395714
C 4.1888975000 -0.8736727564 -1.0994047231
C 2.9485605859 -1.0160586441 -0.2186553025
H 5.4229133848 0.2051841456 0.3221953532
H 3.9020384646 -0.7883364522 -2.1525965428
H 4.7949359107 -1.7785911628 -1.0003477791
H 3.2251068371 -1.0477928156 0.8441341340
H 2.4157137814 -1.9425292256 -0.4337855074
C 6.2684051245 0.6313903716 -1.6029337326
O 6.7064935161 1.8808802891 -1.1658779710
O 5.8027521597 0.6260101141 -2.9362767347
C 7.3745749766 -0.4568371267 -1.4434655973
O 6.9857507024 -1.6856831617 -1.9133436319
Cl 8.8629853833 0.1733248782 -2.3477104100
H 7.6151841548 2.0469318581 -1.4832184318
H 6.5086186793 0.9846927378 -3.5051227067
H 7.6942641967 -0.5677459643 -0.4073718910
H 6.6975935562 -1.5726430248 -2.8389533831
C 1.1455452037 5.5937905293 -1.4624768546
O 0.3402275853 6.7007527981 -1.1910534447
O 2.5261693088 5.8911821222 -1.4215761187
C 1.0229005242 5.1377263202 -2.9461188235
O 1.8338106871 4.0269209179 -3.2320069405
Cl -0.6530756895 4.7373544991 -3.4591426004
H 0.4954234192 7.4019464669 -1.8489593341
H 2.7250309134 6.3947293623 -0.6125786964
H 1.3109244752 5.9988391328 -3.5586007299
H 2.7543950376 4.3292604799 -3.1110779492
O 0.0416327955 -2.1655341217 0.1310320275
C -0.0524866328 -2.5652421343 1.5491810260
O 0.7473303449 -3.6504729896 1.7915325917
C 0.3531018510 -4.8667192763 1.1106388439
C 0.2373691633 -4.5644700571 -0.3912597605
C -0.5018332714 -3.2658759310 -0.7038831486
H 1.2201973331 -5.5137127637 1.2540223849
H -1.1092344447 -2.7847043605 1.7333409675
H -0.3443393451 -2.9664966910 -1.7389864417
H -1.5717858661 -3.3183037185 -0.4958554541
H -0.2578136944 -5.3871628122 -0.9137508454
H 1.2544060601 -4.4931582071 -0.7916842379
N 0.2893794155 -0.2035380466 1.8912734635
C 0.3663112571 -1.3938727758 2.4206672343
S 0.7830071849 -1.8787785047 4.0223109627
C 0.8988295248 -0.2357461326 4.9151268998
C 0.1318248754 0.8483864528 4.1666463607
C 0.5918752950 0.9856784577 2.7145018665
H 1.9659822861 -0.0003027076 4.9578072357
H -0.9426002846 0.6398912935 4.2069332838
H 0.2950359213 1.8039669548 4.6730948500
H 1.6735770394 1.1712045739 2.6662402669
H 0.1034811241 1.8372832118 2.2406744668
C 0.4400042215 -0.5487486001 6.3642979751
O 1.1543344033 -1.6974503949 6.7020910098
O -0.9587686334 -0.7406997986 6.3120774753
C 0.7546761051 0.6352875185 7.3277524520
O 0.0071266612 1.7517406153 7.0581256372
Cl 0.4388402207 0.0089353328 9.0457489902
H 1.1411635938 -1.8239532150 7.6707629974
H -1.2410777385 -1.1521086957 7.1493321724
H 1.8093092669 0.9100952206 7.3154176887
H -0.9299468072 1.4788704759 7.0328396542
C -0.7770964008 -5.6786875111 1.8578949703
O -0.4468173410 -6.9860147685 1.4858863709
O -0.6840543823 -5.4608599728 3.2415851504
C -2.2951668925 -5.4181477649 1.6100142229
O -2.6300884832 -4.0928927946 1.7911078764
Cl -2.8340333563 -5.9964959874 -0.0731400299
H -1.0783620498 -7.6215518377 1.8680019796
H 0.1627915682 -5.8292088002 3.5511863671
H -2.8409144203 -6.0749189419 2.2907284042
H -3.5815792714 -4.0013443852 1.9911906335
O -2.0902681917 -0.1113036084 -0.0853630939
C -2.7720666381 -0.5080350532 -1.3243208300
O -3.8912371681 0.2596950753 -1.5229278490
C -4.9324391937 0.0978240247 -0.5276865863
C -4.3192786816 0.3315976938 0.8625239022
C -2.9852450522 -0.3791153206 1.0644943016
H -5.6003809318 0.9340809323 -0.7413062337
H -3.0177424562 -1.5692058861 -1.2192964453
H -2.4526566627 0.0036834704 1.9344413262
H -3.0867111511 -1.4632399135 1.1430504358
H -5.0130794191 0.0174093602 1.6463171568
H -4.1650031076 1.4100628248 0.9775462323
N -0.5218393065 -0.3388725694 -2.1452786925
C -1.7867720978 -0.3300623721 -2.4662793717
S -2.5651186818 -0.2460120581 -4.0032909458
C -1.1065509451 -0.2944115027 -5.1713297481
C 0.0743171132 -0.9973996126 -4.5143582214
C 0.5046965352 -0.3225418690 -3.2117734059
H -0.8698316806 0.7499204009 -5.3949578809
H -0.1718587959 -2.0501647460 -4.3390401990
H 0.9211760082 -0.9753622629 -5.2063901227
H 0.7948611710 0.7192301991 -3.4024187914
H 1.3867751347 -0.8322072471 -2.8190228087
C -1.6587626744 -0.9313663771 -6.4749640410
O -2.8531238115 -0.2517132502 -6.7072298767
O -1.8285824193 -2.3096690004 -6.2142108368
C -0.6551217815 -0.7593847944 -7.6550901886
O 0.4914183382 -1.4930773336 -7.4827122371
Cl -1.5533375264 -1.2618088706 -9.1959267605
H -3.1354794348 -0.3816614647 -7.6335104079
H -2.4112666731 -2.6821766703 -6.9005575916
H -0.3793987686 0.2831487873 -7.8129409525
H 0.2252883655 -2.4167356653 -7.3101146563
C -5.8782597451 -1.1381359800 -0.7918232925
O -7.0749007975 -0.6781523220 -0.2318968928
O -5.9757278910 -1.3779285128 -2.1712190359
C -5.5547902218 -2.5704792859 -0.2624888428
O -4.3122546112 -3.0040720494 -0.6749439946
Cl -5.6947858173 -2.6835071937 1.5902248677
H -7.7815719975 -1.3382664427 -0.3488620784
H -6.3743748038 -0.5957418532 -2.5928840475
H -6.3548946085 -3.2243685172 -0.6155736210
H -4.2690500178 -3.9791705959 -0.6796745023
