103
# extracted from Terachem optimization
Cr 0.1043684793 0.1412172110 0.0623639582
O 0.3962185311 2.4435244669 0.0590948586
C 1.7726141043 2.7348733267 0.4258426544
C 1.9844491408 4.1443961977 -0.0488576219
C 0.9405028832 4.5664642156 -0.7750165542
C -0.1201287706 3.4937679487 -0.8110061203
H -1.0866392604 3.8190341919 -0.4145750595
H -0.2701324973 3.0887706573 -1.8200266682
H 2.8626688298 4.7313809449 0.1929526117
H 1.8663802752 2.6048409830 1.5109113002
O 2.1827678472 0.3580672703 0.0690102627
C 2.6962379252 1.7181027469 -0.2600836695
N 4.0277894079 1.8045552837 0.2326300228
C 4.9970337324 0.9318089148 -0.4303277888
C 4.3522299631 -0.4234692596 -0.6006560115
C 3.0753332730 -0.6577086738 -0.3134780105
H 5.8252536620 0.7936579548 0.2832659251
H 4.3596192232 2.7594782957 0.3228686872
H 2.5833471467 -1.6223641580 -0.3437594416
H 4.9678447030 -1.2465777374 -0.9432314566
H 2.5897377849 1.7710636697 -1.3539032146
C 5.6093350498 1.4574910562 -1.7352892686
C 5.1907271876 2.5749169838 -2.3474694371
N 6.5883980769 0.5971193694 -2.2409406305
H 5.6659247420 2.9335271519 -3.2554367983
H 4.3582850055 3.1605564682 -1.9768814433
H 7.2576945237 0.2545609798 -1.5570929203
H 7.0741619591 0.9535065031 -3.0575411532
C 0.7597203880 5.8473240525 -1.4817073656
C 1.7776759833 6.4387866470 -2.1318521131
N -0.5801296413 6.2895861453 -1.5244360147
H 1.6478383455 7.3851923219 -2.6482777577
H 2.7495517305 5.9655491496 -2.2058337419
H -0.9993762722 6.4138198657 -0.6057292643
H -0.6927139984 7.1471752537 -2.0574411802
O 0.2039908444 -2.2138800643 0.5099863135
C 0.6271002978 -2.3992751197 1.8867355403
C 0.3469848543 -3.8489084736 2.1622526006
C -0.1740493967 -4.4533180241 1.0856253506
C -0.2541486829 -3.4735228196 -0.0589593840
H 0.3925810476 -3.7334900407 -0.9043422117
H -1.2748040902 -3.3495843951 -0.4396225618
H 0.5840517405 -4.3328001001 3.1025302151
H 1.6935716287 -2.1443842031 1.9618225356
O -0.0014961560 -0.0708240979 2.1838076191
C -0.1432401670 -1.4182051751 2.7785544317
N 0.4033973671 -1.3704748179 4.0951005698
C -0.3350821641 -0.5260638923 5.0361497855
C -0.7459260545 0.7353033194 4.3132987927
C -0.5308007266 0.9282076602 3.0154300262
H 0.3895326434 -0.2186613398 5.8077079611
H 0.5924622059 -2.2915140504 4.4783977356
H -0.7297492249 1.8411483715 2.4665413713
H -1.2085657955 1.5263694778 4.8915036776
H -1.2240628546 -1.6163378442 2.7315681430
C -1.5097275216 -1.1902048291 5.7661972898
C -1.9944132985 -2.3971288715 5.4370656717
N -2.0537761171 -0.3609194916 6.7503448741
H -2.8088159958 -2.8510492092 5.9932631994
H -1.6121156753 -2.9639888806 4.5968339718
H -1.3755929905 0.1051782844 7.3464750080
H -2.7749538349 -0.7990007427 7.3138300090
C -0.6382088639 -5.8433285124 0.9324873874
C -1.2498211240 -6.4946299348 1.9379761296
N -0.5189967943 -6.3395371434 -0.3834859305
H -1.5903831139 -7.5195093847 1.8258146899
H -1.4694487478 -6.0017087088 2.8775814268
H 0.4326469330 -6.3319096391 -0.7431196623
H -0.9036879710 -7.2741659818 -0.4858333376
O -1.9579850373 0.1379548025 -0.1182063543
C -2.4235834617 0.5418121893 -1.4452921178
C -3.8535778857 0.0933476123 -1.4652443668
C -4.1654483297 -0.6015589544 -0.3627560656
C -2.9857501147 -0.6477470244 0.5743898605
H -3.1630342401 -0.1794933525 1.5456703198
H -2.6017869807 -1.6597475638 0.7336232124
H -4.5329712963 0.3320545781 -2.2749214641
H -2.2937067266 1.6273358660 -1.5201184111
O -0.1353515711 0.0581917073 -2.0633578355
C -1.5319695553 -0.1241220169 -2.5023034992
N -1.6820144734 0.5181609602 -3.7684353365
C -0.9128893727 -0.0887050962 -4.8604555922
C 0.4442030830 -0.4771255445 -4.3238300962
C 0.7826766751 -0.3561311730 -3.0443923366
H -0.7431367845 0.7145738986 -5.5956019070
H -2.6558792556 0.6503254968 -4.0282589618
H 1.7602854782 -0.5673389196 -2.6287583902
H 1.1786001694 -0.8576825455 -5.0237816923
H -1.6730528484 -1.2157452387 -2.5012791955
C -1.5936892038 -1.2428622925 -5.6069618293
C -2.7227936874 -1.8304909113 -5.1828692976
N -0.8579697648 -1.6523949820 -6.7198129125
H -3.1933403938 -2.6279244328 -5.7495041846
H -3.2016191270 -1.5574770852 -4.2502991140
H -0.4982359908 -0.9044313262 -7.3056177030
H -1.3097960898 -2.3623868705 -7.2863405314
C -5.4274389755 -1.2799054935 -0.0192461502
C -6.1678871719 -1.8969074620 -0.9574555166
N -5.6767426865 -1.3449773601 1.3684471154
H -7.0998879106 -2.3948633872 -0.7078119536
H -5.8341863364 -1.9620658042 -1.9862348298
H -5.7293234777 -0.4354574555 1.8217048983
H -6.5147719715 -1.8741209671 1.5916220084
