166
# extracted from Terachem optimization
Cr 0.2686269409 0.0472660854 -0.0153241954
N 0.8010961830 2.0178123245 0.0107905565
C 2.0453143679 2.3086462868 0.2496189255
C 2.3496670388 3.7801200587 0.2615369047
C 1.0840688298 4.3726931392 -0.4137822804
C 0.0310086140 3.2600987911 -0.1970952305
H -0.5847150312 3.4180957403 0.6987299647
H -0.6423952899 3.1510768723 -1.0496204953
H 1.2642993480 4.4154102383 -1.4918298960
H 3.2819492535 4.0230871483 -0.2563422428
H 2.4599259607 4.1219347305 1.3020382469
N 2.2903438446 0.0130432052 0.3124968436
C 2.9218396621 1.1633648937 0.4523241427
C 4.3171621408 1.2961493010 0.8184540041
C 5.1572799426 0.2360194303 0.7377247967
C 4.5603765477 -1.0633331244 0.2383981396
C 3.0876677988 -1.1826603028 0.6348741118
H 4.6672963987 -1.1036721072 -0.8561745298
H 5.1140457456 -1.9301635111 0.5999338868
H 4.6852712742 2.2617373887 1.1450603881
H 3.0009092137 -1.3455597643 1.7215947774
H 2.6341578241 -2.0451465418 0.1429243224
C 6.6319658299 0.3501899160 1.1302939854
N 6.9270719061 1.7571191910 1.4462404210
C 6.8380857597 -0.4388291213 2.4451748772
C 7.6140540295 -0.1959542556 0.0223201063
N 7.5230598043 -1.6568566139 -0.1131603389
C 7.3938858454 0.4393917363 -1.3548082097
H 7.7922525333 1.8151408996 1.9800992172
H 7.0781299246 2.2995571298 0.5971475527
H 6.5121478779 -1.4784752378 2.3632807967
H 7.9012447888 -0.4388752998 2.7176355264
H 6.2807601002 0.0415485900 3.2545482128
H 8.6099824676 0.1240065564 0.3775729646
H 7.9962049599 -2.1141179596 0.6641314470
H 8.0218307632 -1.9527883925 -0.9509920532
H 7.4090669680 1.5329504614 -1.3147466519
H 8.1943674408 0.1376993502 -2.0394251183
H 6.4419892558 0.1229408425 -1.7953572125
C 0.7012102420 5.8201990150 0.0394065559
N 0.4472690725 5.9746475783 1.4740253799
C 1.8858722535 6.7512835267 -0.2935199518
C -0.5657486479 6.3548749346 -0.7258517816
N -0.5113075387 5.9522621364 -2.1440721866
C -1.9231641398 5.9266842378 -0.1539763686
H -0.2163330647 5.2952914400 1.8362326081
H 1.3015031902 5.9104051323 2.0220009452
H 2.1239782263 6.7424451862 -1.3627679335
H 1.6472192874 7.7766098617 0.0022151716
H 2.7949528836 6.4554889256 0.2435499433
H -0.5216833000 7.4481318272 -0.5986955968
H -1.3612980583 6.2698476098 -2.6087227061
H 0.2478548120 6.4417978801 -2.6171134372
H -2.0090982952 6.2002937905 0.9001911846
H -2.7220914373 6.4558310068 -0.6869559222
H -2.1130447144 4.8543892714 -0.2733326833
N -0.0948628197 -1.9450366394 0.1321507099
C -0.3296503921 -2.3910233946 1.3301281183
C -0.6659140760 -3.8554446040 1.3880497303
C -0.9794952519 -4.1703226840 -0.0993333911
C -0.2347639875 -3.0411021383 -0.8480053386
H 0.7785306033 -3.3213642188 -1.1684583401
H -0.7711985213 -2.6832450158 -1.7291730975
H -2.0457810915 -3.9890905879 -0.2634963273
H -1.4978804352 -4.0701634432 2.0645007781
H 0.2049112562 -4.4179966342 1.7584544931
N 0.0140388681 -0.1897410829 2.0190757157
C -0.2495651638 -1.4160336337 2.4183121319
C -0.3971787438 -1.8089131429 3.8067573258
C -0.5777021194 -0.8766899148 4.7736794990
C -0.6405637007 0.5678570573 4.3194270312
C 0.2402344512 0.7932610395 3.0905857491
H -1.6862026941 0.8171863346 4.0825313381
H -0.3641894082 1.2558265291 5.1191218465
H -0.3696717413 -2.8612051862 4.0628303535
H 1.3053931289 0.7240375206 3.3666912230
H 0.0814729202 1.7936164802 2.6809454873
C -0.6895641069 -1.2707417352 6.2490128710
N -0.7982434106 -2.7358346496 6.3369081050
C 0.6493645759 -0.8919356482 6.9296911116
C -1.8828209292 -0.5693504739 7.0046707943
N -1.6484373973 0.8725403972 7.1764405698
C -3.2410009845 -0.7717254963 6.3252672125
H -0.5923427261 -3.0389742842 7.2869149960
H -1.7482495086 -3.0431453958 6.1345723360
H 0.8949227982 0.1642142501 6.7972075678
H 0.5919087271 -1.0949205942 8.0067903565
H 1.4588665456 -1.4971894986 6.5122271207
H -1.9178192382 -1.0961494807 7.9751080762
H -0.9665024553 1.0326219593 7.9153787243
H -2.5070048378 1.3215240356 7.4921965337
H -3.4583748120 -1.8286927123 6.1409566986
H -4.0429846333 -0.3932538126 6.9689707119
H -3.2975820809 -0.2351638505 5.3721182882
C -0.7023679107 -5.6415500073 -0.5442881745
N 0.6865940210 -6.0868647991 -0.4047134531
C -1.5471624259 -6.5750359079 0.3481816643
C -1.1248806579 -5.8873852575 -2.0408695336
N -2.4150201681 -5.2291799568 -2.3210119395
C -0.1106043158 -5.4362904576 -3.0985613671
H 1.3557724420 -5.4401591524 -0.8129888919
H 0.9455257971 -6.2423799755 0.5662916293
H -2.6157248535 -6.3418536330 0.2885020221
H -1.3980560395 -7.6152765492 0.0456033796
H -1.2570968220 -6.4932196087 1.4025082435
H -1.1841584246 -6.9836239345 -2.1316453053
H -2.6402410936 -5.3551277897 -3.3072923967
H -3.1640541315 -5.7017785504 -1.8159446060
H 0.8656693684 -5.8958337651 -2.9269977871
H -0.4484156771 -5.7670833685 -4.0879462442
H -0.0025574800 -4.3474082287 -3.1427273659
N -1.7535677635 0.3065761302 -0.3302974075
C -2.1066909390 0.4656252885 -1.5713769168
C -3.5891027420 0.6025769197 -1.7837451527
C -4.1481769853 0.0945673752 -0.4304279572
C -2.9553837745 0.3111942000 0.5288864783
H -2.9856828154 1.2804766215 1.0452296427
H -2.8903692212 -0.4701292945 1.2877246130
H -4.2760739808 -0.9895084512 -0.5091154120
H -3.9426723403 0.0340137477 -2.6486024682
H -3.8398771142 1.6585383237 -1.9679488519
N 0.1638239094 0.2953586571 -2.0406955608
C -1.0316080692 0.4751784843 -2.5611676985
C -1.2818895429 0.6997258870 -3.9721240669
C -0.3341710999 0.4083343246 -4.8949836314
C 0.9798422623 -0.1355960511 -4.3704125476
C 1.2902136350 0.4254808889 -2.9821211284
H 0.9259170105 -1.2338385229 -4.3382194450
H 1.8065954757 0.0798240704 -5.0478964949
H -2.2486437355 1.0785801786 -4.2815530308
H 1.5278336689 1.4987691766 -3.0522501999
H 2.1603860462 -0.0704951653 -2.5472771822
C -0.5832661228 0.6068216011 -6.3910388282
N -1.9741035445 1.0469651750 -6.5870659342
C 0.3122137438 1.7701096221 -6.8793155256
C -0.2823871005 -0.6915522010 -7.2385249547
N 1.1550756145 -0.9958142161 -7.2800269948
C -1.0294918846 -1.9311623928 -6.7338527748
H -2.0754794769 1.4553497729 -7.5142698702
H -2.6169424494 0.2574082674 -6.5514658512
H 1.3670005065 1.6047818212 -6.6487173053
H 0.2165389365 1.8855508214 -7.9664705668
H -0.0079425282 2.7044117409 -6.4090942323
H -0.6811777501 -0.4473711602 -8.2396307756
H 1.6344090785 -0.3481101794 -7.9027435840
H 1.2949528640 -1.9206264908 -7.6842691600
H -2.1075337660 -1.7613207166 -6.6505685601
H -0.8937924822 -2.7628698266 -7.4342920033
H -0.6530938541 -2.2513011823 -5.7563767399
C -5.5330317531 0.6837560742 -0.0043307164
N -5.5755433653 2.1439758733 0.1131003469
C -6.5618985651 0.3059921033 -1.0905117233
C -6.0248845019 0.0842252118 1.3634966413
N -5.7206528493 -1.3587646873 1.4290542942
C -5.4653316650 0.7559321038 2.6234222035
H -4.8054236025 2.5217461726 0.6585666456
H -5.5723580637 2.5999958682 -0.7961630618
H -6.6394340586 -0.7789538272 -1.2194767189
H -7.5478045165 0.6966349196 -0.8233158981
H -6.2898954645 0.7292180407 -2.0646744011
H -7.1080939245 0.2842088601 1.3762593483
H -6.0251317373 -1.7151355950 2.3344801903
H -6.2833509008 -1.8629251429 0.7441835865
H -5.6721554566 1.8285576137 2.6180909219
H -5.9618724373 0.3368758682 3.5068475909
H -4.3900296022 0.5899406050 2.7491268557
