175
# extracted from Terachem optimization
Cr 0.4835394851 0.1769287337 -0.1054128955
N 1.1340579030 2.1011350374 0.2968625695
C 2.4023267485 2.3624874436 0.4506202308
C 2.6803458392 3.7687582771 0.6508590655
C 1.4876389975 4.4206086000 0.6093262288
C 0.4241588438 3.3774015337 0.3953284573
H -0.2784215798 3.3530980967 1.2375963376
H -0.1772427256 3.5548106529 -0.5030793319
H 3.6640264552 4.1818362371 0.8316206860
O 2.7024772324 0.1096892675 -0.1496417452
C 3.3819350969 1.2238785824 0.4661113747
O 3.6994276576 0.9882658692 1.8109754227
C 4.5348056095 -0.1858018477 2.0789701937
C 3.8524726289 -1.3747064837 1.3867839489
C 3.5340160628 -1.0890166156 -0.0726518173
H 4.4195172449 -0.3270435805 3.1525660288
H 4.2854437577 1.4238831896 -0.1171284415
H 2.9383626315 -1.8822437659 -0.5235153697
H 4.4312028899 -0.9168991380 -0.6753357278
H 4.4408828932 -2.2836251619 1.5019650928
H 2.9008205750 -1.5362909292 1.9056047924
C 6.0501142397 0.1408837808 1.8586719037
O 6.1964548845 0.5271724245 0.4780091792
C 6.3696591287 1.3583494530 2.7478458056
C 7.0023679004 -1.0949164706 2.1786987839
N 6.4076898386 -1.8364696718 3.3133244952
C 7.1162702041 -2.0585384727 0.9800217194
C 8.4416936912 -0.6235577000 2.5007935171
H 7.1105306675 0.8277685714 0.3465158381
H 6.3538217262 1.0998803859 3.8126870457
H 7.3590189176 1.7667412413 2.5224095721
H 5.6294331925 2.1429805579 2.5813856926
H 6.9008400704 -2.7224091036 3.4248469801
H 6.5720053860 -1.3285520967 4.1832845584
H 7.5949098039 -1.5712739797 0.1277567842
H 7.7411213386 -2.9138189620 1.2625956851
H 6.1571817857 -2.4504662647 0.6418325256
H 8.8775425021 -0.0105153446 1.7003329843
H 8.4944386508 -0.0488851741 3.4301888002
H 9.0899537458 -1.4985753923 2.6170369936
C 1.1817772225 5.8872627890 0.7608055134
O -0.2233201772 5.9177571716 1.0647597509
C 1.9756522683 6.4669263847 1.9459254961
C 1.4734708153 6.6756952803 -0.6149355645
N 2.8774574175 6.6611528144 -1.0137705566
C 0.6630306408 6.0462063068 -1.7613187032
C 1.0572550248 8.1511104925 -0.4670010292
H -0.4559857783 6.8259904668 1.3131468866
H 3.0520880230 6.4717907043 1.7530214759
H 1.6697422810 7.4972070742 2.1529201923
H 1.7905894366 5.8737126181 2.8456873292
H 3.2388926423 5.7164921313 -1.1193047618
H 3.4754998711 7.1686938469 -0.3667817339
H -0.3972726435 5.9762562234 -1.5033890252
H 0.7715205941 6.6602225690 -2.6590861092
H 1.0315480279 5.0426556063 -2.0092556232
H -0.0049732419 8.2540153040 -0.2218221093
H 1.6429186492 8.6770994946 0.2941045666
H 1.2280699636 8.6593969561 -1.4194132393
N 0.1410426247 -1.8948394542 -0.1052785484
C -0.1955110335 -2.4666866942 1.0167921014
C -0.3777852240 -3.9005189088 0.9040522313
C -0.1432426530 -4.2276051369 -0.3937747520
C 0.2093040822 -2.9532823153 -1.1131685754
H 1.2125752502 -3.0071088032 -1.5518727203
H -0.4730657037 -2.7387899645 -1.9438124560
H -0.6060833135 -4.5547360644 1.7339909060
O 0.3687409877 -0.3996133120 1.9865208017
C -0.3450068737 -1.6275313878 2.2580718268
O 0.2044402953 -2.3376924580 3.3214564626
C 0.2735067199 -1.6339571976 4.6025789843
C 1.0407534776 -0.3338470078 4.3298620005
C 0.4718133220 0.4604715544 3.1630519885
H 0.9186081065 -2.2751223830 5.2001252731
H -1.3904063823 -1.3691375789 2.4592353261
H 1.1535025624 1.2526793205 2.8594886878
H -0.5206811071 0.8668966986 3.3798109455
H 1.1058703403 0.2866992814 5.2225507004
H 2.0667380295 -0.6207996521 4.0726257203
C -1.1090249323 -1.6253577830 5.3329078279
O -2.0210573812 -0.8759095222 4.5013698815
C -1.5955728619 -3.0864603303 5.3967611563
C -1.0337832754 -0.9666762259 6.7849733400
N 0.2872398570 -1.2977760689 7.3603252214
C -1.1583315937 0.5698922102 6.7342365690
C -2.1899840215 -1.4683774310 7.6860630313
H -2.9029647769 -0.9328286350 4.9043577386
H -0.9850814640 -3.6912096689 6.0767253330
H -2.6303421230 -3.1391366886 5.7455139740
H -1.5433833602 -3.5416620051 4.4066556417
H 0.4209624612 -0.7619564053 8.2176898148
H 0.3092225407 -2.2765473433 7.6491776243
H -2.1329598115 0.8760834430 6.3467435935
H -1.0710630872 0.9696190772 7.7512236187
H -0.3920928380 1.0522234500 6.1271249114
H -3.1808697966 -1.2915014628 7.2459315592
H -2.1091561807 -2.5355654927 7.9117972005
H -2.1666866216 -0.9278983699 8.6383994720
C -0.1699229999 -5.5666447951 -1.0838432048
O 0.5101531568 -5.3268150517 -2.3268652472
C 0.6245827700 -6.5953916907 -0.2572261674
C -1.6868912989 -6.0361186134 -1.3559779388
N -2.4485839029 -6.2944655235 -0.1388769889
C -2.4365858960 -4.9480546415 -2.1439917903
C -1.6902559682 -7.3376842331 -2.1797651090
H 0.6341162432 -6.1799685001 -2.7711294809
H 0.1481602346 -6.8092588838 0.7035826448
H 0.7198797282 -7.5401017691 -0.8020481252
H 1.6319598520 -6.2171229431 -0.0622433541
H -2.5011326677 -5.4808789254 0.4688448111
H -2.0850266114 -7.0794036466 0.3949175359
H -1.8969958176 -4.6769621835 -3.0562303493
H -3.4290440212 -5.3173833997 -2.4153440664
H -2.5796207982 -4.0438534121 -1.5387712317
H -1.1980029431 -7.2108701862 -3.1498521577
H -1.2102459327 -8.1685507146 -1.6520117298
H -2.7266671902 -7.6277809516 -2.3705215313
N -1.5258233740 0.5089741635 -0.3392217794
C -1.9190493217 0.6903162940 -1.5717608426
C -3.2997062438 1.1147241794 -1.6817837186
C -3.7916351306 1.1936592758 -0.4176333237
C -2.6717047680 0.8237059849 0.5179096288
H -2.4232441687 1.6522499816 1.1919862728
H -2.9282219100 -0.0263044247 1.1595976832
H -3.7902472224 1.3594609911 -2.6133548469
O 0.3775060542 0.4659955953 -2.1401480195
C -0.9581016159 0.4944129108 -2.7155768197
O -1.1254225949 1.5661523316 -3.5887000046
C -0.1865145190 1.6525806357 -4.7110295583
C 1.2224783144 1.6192140529 -4.1064033110
C 1.4204805516 0.4430631730 -3.1663920316
H -0.3498225185 2.6624059821 -5.0839077977
H -1.1119496359 -0.4608851485 -3.2291247611
H 2.3517762442 0.4983506562 -2.6024541648
H 1.3528980276 -0.5185731150 -3.6842312558
H 1.9765018027 1.6332144914 -4.8919465243
H 1.3471381762 2.5460631472 -3.5329488920
C -0.6105603602 0.6981227128 -5.8771550951
O -0.6656493325 -0.6360912827 -5.3308365145
C -2.0362183127 1.1173868631 -6.2871243321
C 0.3941377656 0.7325542787 -7.1106753090
N 0.8874560335 2.1210089807 -7.2461032994
C 1.6110241225 -0.1897572601 -6.8921174857
C -0.3007315946 0.2473616226 -8.4072372657
H -1.0438823561 -1.2187579526 -6.0096110828
H -2.0463184241 2.0843175222 -6.8024182506
H -2.4884834593 0.3812307613 -6.9576872406
H -2.6692281900 1.2051832022 -5.4017237442
H 1.6494914114 2.1393226030 -7.9237851210
H 0.1596613727 2.7136678116 -7.6472358860
H 1.3055234055 -1.2368280837 -6.8368309706
H 2.2951345830 -0.0914530673 -7.7429209734
H 2.1758283197 0.0407214508 -5.9887845065
H -0.7420841371 -0.7532283940 -8.3050180335
H -1.0892276825 0.9309596562 -8.7345362456
H 0.4383254782 0.1873324969 -9.2132748901
C -5.1590446611 1.5882562353 0.0731169243
O -4.9920754932 1.7311158421 1.4938075939
C -5.5535259168 2.9498683820 -0.5321116101
C -6.2400256815 0.4349883764 -0.2423718536
N -6.4555999694 0.1984828393 -1.6648821076
C -5.7730145940 -0.8916192246 0.3798522074
C -7.6043158147 0.8215798353 0.3605497835
H -5.8037855632 2.1244124541 1.8498514738
H -5.6627754184 2.9026999767 -1.6193816581
H -6.5021566612 3.2991696014 -0.1125877588
H -4.7865019999 3.6939851124 -0.2993173947
H -5.6133266288 -0.1148146317 -2.1397450852
H -6.8272325609 1.0103876592 -2.1503242158
H -5.5578332157 -0.7723328703 1.4452701647
H -6.5546726789 -1.6458834059 0.2573566066
H -4.8716507542 -1.2696208461 -0.1195655529
H -7.5505666851 0.9798612697 1.4430365613
H -8.0204369030 1.7216838739 -0.1035303271
H -8.3099297462 0.0066029997 0.1807504342
