130
# extracted from Terachem optimization
Cr 0.2194011452 0.2323218772 0.0347202321
O 0.4871974153 2.3805499785 -0.0412935777
C 1.8550066757 2.7232943647 -0.5032723410
O 2.2303961428 3.9976379189 -0.1652700398
C 1.8392010014 4.3998943556 1.1930931445
C 0.3399680661 4.4189427583 1.1672345181
C -0.2604329570 3.4270772325 0.5133919059
H 2.2290876396 3.6496865730 1.8910602643
H -1.3192034327 3.3226242863 0.3177137492
H -0.2442998692 5.2423750647 1.5583361230
H 1.8213741547 2.6807759831 -1.5960145870
N 2.2805876322 0.4427970771 0.2025640155
C 2.7817904408 1.6195745851 0.0185811184
S 4.4408328051 2.1329035716 0.2084604479
C 5.4049096593 0.5198702363 0.1557492845
C 4.4954561099 -0.6825789483 -0.0938193334
C 3.1817005000 -0.6161180706 0.6894044484
H 5.8605929312 0.4526074654 1.1462543614
H 4.2895079039 -0.7717322054 -1.1638114733
H 5.0323665142 -1.5882421623 0.2013080019
H 3.3798652242 -0.4351347146 1.7560902859
H 2.6553518336 -1.5673038283 0.6072946358
C 6.5196231065 0.7257509054 -0.8940186641
O 5.8855154978 0.7638164305 -2.1559687957
C 7.6997805040 -0.2740286034 -0.8345213167
C 8.3808001172 -0.3766567780 0.5257340783
Cl 7.2379572158 -1.9373218132 -1.4342528828
H 6.9935736811 1.6986500291 -0.6716151784
H 6.5580714993 0.8759908570 -2.8470183557
H 8.4284356257 0.0727675141 -1.5746354135
H 7.7341597170 -0.8497012323 1.2710133855
H 9.2913156276 -0.9747885243 0.4466326925
H 8.6614073369 0.6214501867 0.8843207360
C 2.5862449411 5.7180941025 1.4593909256
O 3.9589175112 5.5293725254 1.1811202705
C 2.5080773155 6.2491215498 2.9037384212
C 1.2343179044 6.9918525015 3.2901082983
Cl 2.8315014131 4.9146267218 4.1243303213
H 2.1588300187 6.5007244885 0.8108974422
H 4.0427742793 5.2696152482 0.2496642028
H 3.3694498271 6.9115443031 3.0058122107
H 0.3607911031 6.3360983216 3.3392464487
H 1.3575748132 7.4481105657 4.2751348549
H 1.0376789455 7.7940146583 2.5687374817
O -0.2876711206 -1.8499807654 0.2103638235
C -0.9754096465 -2.0861959161 1.4968219100
O -0.9168891296 -3.3932229932 1.8982085343
C 0.4280805775 -3.9808619038 1.9278682102
C 0.9609718049 -3.8764278703 0.5322658201
C 0.5646814054 -2.8685012445 -0.2390728787
H 1.0332985405 -3.4146308370 2.6434853092
H 0.8306163346 -2.7149757983 -1.2767704554
H 1.6299368578 -4.6221850345 0.1225066825
H -2.0259178077 -1.8598996723 1.2985947285
N 0.0010030612 0.0752385137 2.0970248622
C -0.4552145020 -1.0600998227 2.5255880959
S -0.6688455419 -1.5972219939 4.1653407853
C -0.4698206017 -0.0332220449 5.1849461280
C -0.4523694661 1.2062427411 4.2918634179
C 0.4744211144 1.0616020446 3.0848613137
H 0.4922274395 -0.1572368749 5.6875137759
H -1.4708045881 1.4331806792 3.9625632104
H -0.1154414782 2.0580492298 4.8886275195
H 1.4854933650 0.7675902648 3.3995651735
H 0.5560581801 2.0169581319 2.5677337805
C -1.5951283924 -0.0847564036 6.2433284877
O -2.8032110668 0.1792061664 5.5620124504
C -1.3870491886 0.7903236113 7.5017651300
C -0.0870539777 0.5221830245 8.2522396442
Cl -1.5588064452 2.5729747781 7.1557509552
H -1.6015080751 -1.1122786233 6.6520764396
H -3.5345332677 0.1925264272 6.2004003910
H -2.2324798452 0.5719813811 8.1627439220
H 0.7884006496 0.8542927307 7.6860711405
H -0.0868894109 1.0542924651 9.2061673607
H 0.0133120463 -0.5497631832 8.4624464465
C 0.2151587071 -5.3883173736 2.5180219808
O -0.4073517516 -5.2478679076 3.7819750056
C 1.4886717803 -6.2310286975 2.7456057571
C 1.9170489296 -7.1218255938 1.5851452061
Cl 2.9095979522 -5.1969365331 3.2816739272
H -0.4292668638 -5.9562737162 1.8283760039
H -1.2985110207 -4.8910560177 3.6391169274
H 1.2652071634 -6.8453388402 3.6190133032
H 2.2351647988 -6.5548042855 0.7055096597
H 2.7538615277 -7.7538029207 1.8914528965
H 1.0852919042 -7.7747341395 1.2957139330
O -1.9342677208 0.2386578081 -0.2309832342
C -2.2576058299 -0.3850127447 -1.5278511163
O -3.4971220199 -0.0356778184 -1.9945507478
C -3.7967333150 1.3997575837 -1.9786071941
C -3.6948792635 1.8288209377 -0.5463693563
C -2.8212596776 1.2121729582 0.2439559978
H -3.0722670190 1.9118649870 -2.6209642977
H -2.6975902893 1.3669027212 1.3087682115
H -4.3545519592 2.5794939568 -0.1302944806
H -2.2866032002 -1.4581906433 -1.3230963977
N 0.1051762431 0.0515965628 -2.0484316098
C -1.0926312944 -0.1313138869 -2.5103942877
S -1.6052336372 -0.2529978007 -4.1703104798
C -0.0093701448 -0.5255479955 -5.1224199743
C 1.1610937739 -0.7726407245 -4.1736511649
C 1.2033213857 0.2263863419 -3.0172804797
H 0.1399716770 0.4024336466 -5.6794636731
H 1.1167795320 -1.7974086555 -3.7934479431
H 2.0907611959 -0.6870961703 -4.7418951586
H 1.1568989537 1.2555646786 -3.4036467272
H 2.1341366054 0.1228784932 -2.4591882383
C -0.3149217813 -1.6635278324 -6.1206297508
O -0.4225785089 -2.8503248406 -5.3622389526
C 0.6453370102 -1.7883885645 -7.3274030447
C 0.7546630021 -0.5326682894 -8.1861549848
Cl 2.3084529487 -2.3694526183 -6.8481038715
H -1.2847649321 -1.4218974494 -6.5929869884
H -0.6349923221 -3.5898576710 -5.9543174703
H 0.2530257906 -2.6060219393 -7.9411918068
H 1.2659840633 0.2805958748 -7.6622385562
H 1.3192929623 -0.7483525419 -9.0959816546
H -0.2443862687 -0.1889084681 -8.4812003011
C -5.1764170419 1.5153898175 -2.6504771771
O -5.0862523657 0.9935124109 -3.9635087751
C -5.7413847801 2.9488710871 -2.7843154557
C -6.7086505003 3.3757872149 -1.6865586088
Cl -4.4119332432 4.2083209856 -2.9556804829
H -5.8946286160 0.9340044728 -2.0511502919
H -4.9085739745 0.0413771881 -3.8971070956
H -6.2486933982 2.9702542157 -3.7497781349
H -6.2404950790 3.4228820420 -0.6986273368
H -7.1172517521 4.3643933113 -1.9088740536
H -7.5425618233 2.6655952341 -1.6382464671
