160
# extracted from Terachem optimization
Cr 0.6759790744 0.4973091622 0.3632619783
N 0.9733521191 2.5540978850 0.6698358617
C 2.2154210159 2.9180048689 0.8790424252
C 2.3763794183 4.3617779694 0.9088485606
C 1.1525813829 4.9063755835 0.6912191657
C 0.1849301180 3.7701518031 0.5202921208
H -0.6336345863 3.8014075484 1.2490108554
H -0.2943310882 3.7885812672 -0.4655135358
H 3.3169660639 4.8787303277 1.0455255859
N 2.7961474937 0.6109273699 0.7751963474
C 3.2437063291 1.8722952923 1.0135021390
C 4.5585254531 2.1334400773 1.3889797493
C 5.4722934224 1.0797275600 1.5377353420
C 4.9923381694 -0.2117259229 1.2944125718
C 3.6652592078 -0.3991327046 0.9141957498
H 4.8524396247 3.1490749199 1.6193504466
H 3.2633587157 -1.3910876130 0.7345723244
H 5.6418208539 -1.0638619619 1.4501499169
C 6.9111461405 1.3032638136 2.0335172437
N 6.9423143333 2.5728432298 2.7846107091
N 7.2332948943 0.1914802154 2.9211062626
C 7.9725994779 1.2770107841 0.8499021476
C 8.0467716695 -0.0733026663 0.1220021951
C 7.7539543737 2.4066742799 -0.1674408458
O 9.1983920695 1.5058495739 1.5640560921
H 7.8408465305 2.6137870414 3.2644465032
H 6.9502176438 3.3759664152 2.1558265467
H 8.2369718798 0.2063473808 3.0995423757
H 6.7595017531 0.3341308972 3.8125263443
H 7.1371642235 -0.2797778122 -0.4509460428
H 8.8759082601 -0.0524809217 -0.5961259020
H 8.2169361638 -0.8926927840 0.8236422625
H 7.8146695052 3.3937612815 0.3004369411
H 8.5395650218 2.3661139794 -0.9297256143
H 6.7924225989 2.3133713538 -0.6849150786
H 9.9422338439 1.3569991740 0.9585910291
C 0.7281851177 6.3586776688 0.5524256503
N 1.7300803464 7.0533076279 -0.2701786087
N -0.5660776206 6.3737483426 -0.1397015934
C 0.5044637592 7.0461553084 1.9706027134
C -0.5564406875 6.3293979824 2.8182145028
C 1.8055173206 7.2012888718 2.7672793309
O 0.0279475128 8.3458414239 1.5868361155
H 1.4894890006 8.0454719576 -0.2766682535
H 2.6637104308 6.9870125060 0.1326169359
H -0.9934258466 7.2860962204 0.0185546591
H -0.3716631227 6.3190805660 -1.1399558826
H -0.2001925182 5.3500337380 3.1583367095
H -0.7729307847 6.9194751102 3.7167915108
H -1.4843247623 6.1954979233 2.2577032486
H 2.5483968033 7.7770308510 2.2086554863
H 1.6006528610 7.7459768012 3.6962190924
H 2.2354844478 6.2346709289 3.0495110275
H -0.1508678139 8.8624723434 2.3888233660
N 0.4556620658 -1.6189393098 0.3125500043
C 0.1994760462 -2.3429952200 1.3761173633
C -0.0891495246 -3.7304898166 1.0430130088
C -0.0184839611 -3.8508850289 -0.3056564326
C 0.3232508943 -2.4938161487 -0.8481335347
H 1.2354753154 -2.4872100436 -1.4562616874
H -0.4657756448 -2.1195699141 -1.5112101875
H -0.3525875437 -4.4950499257 1.7618466015
N 0.2653005587 -0.3681271827 2.7026535747
C 0.1902814166 -1.7180986184 2.7130760534
C 0.1313543857 -2.4632122188 3.8917047438
C 0.1477913358 -1.8103273349 5.1325501177
C 0.2429176416 -0.4155202604 5.1086795683
C 0.2934173324 0.2535883732 3.8848050873
H 0.1169812008 -3.5442667757 3.8398857366
H 0.3668212419 1.3382157508 3.8518475175
H 0.3115262965 0.1315140178 6.0409003038
C 0.1256671258 -2.5704145275 6.4691940328
N 0.6899336056 -3.9153810431 6.2480708899
N 0.9659391730 -1.8347690687 7.4079988799
C -1.3360552556 -2.6283992603 7.0988571180
C -1.8959633638 -1.2483331532 7.4709865566
C -2.3350756243 -3.3746958384 6.2029603999
O -1.1028160231 -3.3922378668 8.2939138009
H 0.7822977532 -4.3488052759 7.1665480388
H 0.0332866482 -4.5143226452 5.7478559185
H 0.7877370646 -2.1971436756 8.3441117084
H 1.9425431572 -2.0273761737 7.1875977638
H -2.0969986842 -0.6392421473 6.5841977206
H -2.8507169088 -1.3724337937 7.9974130815
H -1.2079225302 -0.7054262915 8.1223727322
H -2.0082143614 -4.3978144608 5.9947438026
H -3.3012420079 -3.4466251314 6.7148362527
H -2.5058883192 -2.8530122876 5.2547985475
H -1.9001580897 -3.3553986324 8.8459818094
C -0.2976896552 -5.0451550553 -1.2034677382
N -1.4650532462 -5.7630448226 -0.6717131290
N -0.6137184029 -4.5262150226 -2.5409570245
C 0.9826544338 -5.9779752259 -1.3583528264
C 2.1915257523 -5.2339492143 -1.9426401757
C 1.3655922774 -6.6762075225 -0.0479623655
O 0.5140242533 -6.9558250591 -2.3016073466
H -1.5779634801 -6.6148636149 -1.2230913783
H -1.3176358042 -6.0643162001 0.2905849838
H -0.5042143990 -5.2914100179 -3.2060990065
H -1.6056789428 -4.2868160691 -2.5407290892
H 2.5996429534 -4.5095698749 -1.2283057754
H 2.9931784569 -5.9477081112 -2.1676950308
H 1.9240713410 -4.7132592326 -2.8649960790
H 0.5462350186 -7.2942862906 0.3296174071
H 2.2225448692 -7.3376114830 -0.2215142747
H 1.6624204924 -5.9623196757 0.7270166907
H 1.2110391307 -7.6176614572 -2.4364012322
N -1.3535708442 0.7500425081 -0.2415617722
C -1.7079163438 0.8601222996 -1.4979177378
C -3.1530376797 0.8807498455 -1.6648966826
C -3.7126199888 0.7853776291 -0.4350368034
C -2.5803226492 0.6929587773 0.5523480520
H -2.5685217907 1.5055318897 1.2878869597
H -2.6259549287 -0.2427878884 1.1222586928
H -3.6818748289 0.8991018675 -2.6068842821
N 0.5910540804 0.7927166747 -2.1329030911
C -0.6856237730 0.9224181085 -2.5599661652
C -1.0173976928 1.1180973675 -3.9011993321
C -0.0064746124 1.1923089371 -4.8687998727
C 1.3115006195 1.1081384672 -4.4092430852
C 1.5569263210 0.8979451849 -3.0510386490
H -2.0518056548 1.2567101591 -4.1867886352
H 2.5765232664 0.8163404516 -2.6813302745
H 2.1335954319 1.2344209213 -5.1025729739
C -0.3142140047 1.4151083515 -6.3578582206
N -1.6809373148 1.9586931820 -6.4743253321
N 0.6532056281 2.3826472909 -6.8638948023
C -0.1336975264 0.0801529505 -7.2078378229
C 1.3144384628 -0.4246608554 -7.2748591867
C -1.0565079998 -1.0504067475 -6.7290203951
O -0.5479016478 0.5148684279 -8.5144979902
H -1.8001451023 2.2527082620 -7.4429530068
H -2.3798657425 1.2270285920 -6.3428541639
H 0.5877116855 2.3956387855 -7.8814760456
H 0.3938213093 3.3104644994 -6.5303038474
H 1.6601477644 -0.8078859616 -6.3098911236
H 1.3742994107 -1.2595395812 -7.9848518039
H 1.9952628070 0.3620210921 -7.6063198327
H -2.1114256761 -0.7668517983 -6.7893898382
H -0.9233262430 -1.9266860146 -7.3730444851
H -0.8287040708 -1.3599315149 -5.7030379678
H -0.3147818255 -0.1742076709 -9.1569040233
C -5.1901676729 0.5909569173 -0.1315829385
N -5.9108112944 0.6626993287 -1.4133904978
N -5.3095944018 -0.7566680434 0.4391157520
C -5.7892103075 1.6059876432 0.9341808422
C -5.2268384270 1.4453912014 2.3556199330
C -5.6679566898 3.0643496069 0.4714808578
O -7.1728514829 1.2100739266 0.9415338343
H -6.9035406061 0.5443633549 -1.2122764742
H -5.8250711292 1.5917517585 -1.8264916141
H -6.2563008818 -0.8541784419 0.8079608264
H -5.2263354724 -1.4222562283 -0.3293384135
H -4.2263549664 1.8768093899 2.4563327102
H -5.8688093417 1.9893808600 3.0596092303
H -5.1919108997 0.3959098938 2.6529055888
H -6.2001229609 3.2281393741 -0.4692132087
H -6.1108904913 3.7321481523 1.2194384048
H -4.6219272139 3.3652385160 0.3401911563
H -7.6449147382 1.7452902944 1.5990157194
