148
# extracted from Terachem optimization
Cr -0.5481882498 -0.4958571537 -0.3225164584
O -0.4135280311 2.0592931188 -0.3433118742
C 0.8502480612 2.4381212903 -0.8997888994
O 1.2927750214 3.5328831055 -0.1683294020
C 0.1167792979 4.3530330141 0.0415640976
C -1.0170254388 3.2955076400 0.1374086590
H -1.3660012041 3.1301128796 1.1559889784
H -1.8691062852 3.5490968372 -0.4986001637
H -0.0312439022 4.9790217012 -0.8461149776
H 0.7035753170 2.7011970652 -1.9651944337
N 1.4606836089 0.1016816997 -0.5820092740
C 1.8437384039 1.3106415533 -0.7845165092
C 3.3267421115 1.5078135873 -0.8959040596
C 3.8643957651 0.0507754956 -0.9493885201
C 2.6432300125 -0.7890593341 -0.4881734894
H 2.7208309734 -1.1255314658 0.5529071247
H 2.4764378517 -1.6773705540 -1.1053337916
H 4.0723214484 -0.2032179670 -1.9934275607
H 3.5841863890 2.1125587733 -1.7719701766
H 3.6716144096 2.0843480340 -0.0293510561
C 5.1500154786 -0.2701234000 -0.1462977726
C 5.1573527230 0.3303399444 1.2666946698
C 6.4445907915 0.0867516636 -0.9446047197
N 6.4796365385 -0.7332191586 -2.1414244969
N 6.4739745638 1.5130537321 -1.2656499852
O 7.5956137949 -0.2008607074 -0.1629096480
H 5.1785465827 -1.3649667135 -0.0439289852
H 5.9229184085 -0.1471223824 1.8843132995
H 5.3592198140 1.4061917728 1.2392559752
H 4.1980082361 0.1768761188 1.7768071961
H 7.3155619398 -0.4928255894 -2.6751503372
H 6.5947133272 -1.7118964672 -1.8745638446
H 7.4343254758 1.7677315243 -1.4973868553
H 5.9189565143 1.6909421697 -2.1012787314
H 7.6507175752 0.4558827511 0.5519461206
C 0.3691639055 5.2594267035 1.2533883443
C 0.4973647981 4.4814078275 2.5695404483
C -0.6770387848 6.4149479804 1.3338481469
N -0.5236291108 7.2586741546 0.1695708812
N -2.0432072972 5.8718698123 1.4012559074
O -0.4480068526 7.1900907147 2.5018814234
H 1.3352944838 5.7399049307 1.0520009912
H 1.0011945081 5.0880786642 3.3274330486
H -0.4827770767 4.1834861168 2.9599511941
H 1.1042566372 3.5833544459 2.4203171115
H -1.1693721344 8.0449781649 0.2468210991
H 0.4128337751 7.6635288389 0.1553047753
H -2.6144688698 6.5381588715 1.9207521252
H -2.4270880585 5.8458395397 0.4567192303
H -0.5955231885 6.6348758065 3.2859480304
O -0.5246103024 -2.9464920918 0.2568937441
C -0.6151049494 -3.0615873714 1.6829731704
O 0.3669293317 -3.9641613680 2.0785319037
C 0.3609275749 -4.9876841815 1.0511749315
C 0.1604126685 -4.1422012011 -0.2226040484
H 1.1010623135 -3.8388218510 -0.6841156239
H -0.4715451455 -4.6314848715 -0.9649589034
H -0.5132070615 -5.6307323509 1.2114707914
H -1.6251791908 -3.4376126972 1.9316930488
N -0.3548325918 -0.6251593680 1.7576382135
C -0.3910778813 -1.7468106026 2.3848114035
C -0.2130684384 -1.6465472470 3.8740702784
C -0.3915758173 -0.1250479693 4.1220187723
C -0.1070097270 0.4738488115 2.7239125485
H 0.9348973331 0.7941792277 2.5993940667
H -0.7405105814 1.3287178166 2.4772580738
H -1.4463791394 0.0618478292 4.3509923050
H -0.9228340100 -2.2820411084 4.4122652902
H 0.7840250572 -2.0196034650 4.1402986150
C 0.4370943760 0.5389015865 5.2487600162
C 1.9059620321 0.0951464887 5.2795454209
C -0.2469758627 0.3921052567 6.6457772685
N -1.5312536049 1.0695813790 6.5981844649
N -0.3922346889 -1.0167941360 7.0047967181
O 0.5494578772 1.0115831520 7.6462439052
H 0.4192529853 1.6193122011 5.0422328105
H 2.4983874858 0.7758968709 5.8969944680
H 2.0050521434 -0.9153613228 5.6893447702
H 2.3561505309 0.1043498432 4.2793843994
H -1.9863492460 0.9608506918 7.5051866097
H -1.3760260930 2.0726649519 6.4872216771
H -0.5470885637 -1.0725976646 8.0115562838
H -1.2254175149 -1.4019688179 6.5629990142
H 1.3403686264 0.4645200037 7.7903090209
C 1.6348487140 -5.8281482316 1.1942753204
C 2.9174843729 -5.0440997953 0.8881894376
C 1.5398854507 -7.1629516844 0.3888459649
N 0.4411486229 -7.9427608034 0.9154058500
N 1.3438198947 -6.8935976684 -1.0433814548
O 2.7447120516 -7.8986304379 0.5477465731
H 1.6614930022 -6.1189539306 2.2524467396
H 3.7872311354 -5.5548166548 1.3115794852
H 3.0733127884 -4.9324698719 -0.1907038503
H 2.8795844041 -4.0499866538 1.3451380587
H 0.4126108867 -8.8390715231 0.4283435532
H 0.6123681338 -8.1619660890 1.8972720884
H 1.7714463911 -7.6588386187 -1.5645747630
H 0.3457605386 -6.9358215543 -1.2476469070
H 3.4759768464 -7.4034761542 0.1416137297
O -2.6747595245 -0.6196567911 -0.4800922201
C -3.1447717193 -1.0530249442 -1.7897647965
O -4.1182450512 -0.1448816073 -2.1663183413
C -4.8556302907 0.1445608603 -0.9501885631
C -3.7110029173 0.2640941234 0.0736788535
H -3.2972707861 1.2704343031 0.1310002314
H -3.9705337597 -0.0988763764 1.0667432383
H -5.4841051043 -0.7223899365 -0.7126956452
H -3.5525173871 -2.0700347240 -1.6661588308
N -0.8160665835 -0.7999264685 -2.3956879081
C -2.0158601566 -1.0379618108 -2.7851075081
C -2.1949197013 -1.2687409571 -4.2542139058
C -0.7279216840 -1.3173167677 -4.7725785381
C 0.0987404636 -0.8022888236 -3.5608948992
H 0.4631263233 0.2229088941 -3.6969989685
H 0.9670638091 -1.4306119532 -3.3411444244
H -0.4565056561 -2.3624228114 -4.9480268289
H -2.7611545238 -2.1872736459 -4.4445381203
H -2.7940166132 -0.4554906558 -4.6799431186
C -0.4132236577 -0.5467744264 -6.0796928295
C -1.0075581209 0.8684436001 -6.1163164609
C -0.7831534034 -1.3732679500 -7.3533062989
N 0.0285705662 -2.5748588665 -7.3666432660
N -2.2119764999 -1.6881926410 -7.3659292768
O -0.5001536222 -0.6176969506 -8.5229962170
H 0.6818003042 -0.4505496283 -6.1180869606
H -0.5289976177 1.4664247953 -6.8966372979
H -2.0838919040 0.8425797352 -6.3161010758
H -0.8504581694 1.3994325349 -5.1692173033
H -0.2142118449 -3.1219599245 -8.1931123294
H 1.0097988658 -2.3182817491 -7.4830310855
H -2.4754424261 -1.9274470966 -8.3220565759
H -2.3856161692 -2.5196492844 -6.8031577050
H -1.1499157919 0.1027795166 -8.5869293665
C -5.7484513171 1.3658045831 -1.1969767832
C -4.9599681617 2.6713143741 -1.3660452028
C -6.8686349235 1.4715434526 -0.1134629474
N -7.7271035574 0.3143380486 -0.2255447562
N -6.2744601418 1.5421475926 1.2321358175
O -7.6374085412 2.6444198066 -0.3341158190
H -6.2597187409 1.1537953086 -2.1447599072
H -5.5718333168 3.4257435596 -1.8685891013
H -4.6384900253 3.0714549043 -0.3971593724
H -4.0758705768 2.5093517620 -1.9913210140
H -8.4881340258 0.4016039491 0.4485696569
H -8.1662862071 0.2957787375 -1.1462039307
H -6.8765136537 2.1296206302 1.8084280055
H -6.3054321624 0.6124065190 1.6500092940
H -7.0703839730 3.4262250972 -0.2251771100
