163
# extracted from Terachem optimization
Cr -0.4348961558 -0.3297571712 -0.3943040884
O -0.0236472705 2.1638297670 -0.3642290340
C 1.3678251425 2.4686476302 -0.3495962712
C 1.5093839251 3.4552766942 0.8218500999
C 0.2435432612 4.3288460336 0.6759180141
C -0.7568680014 3.3689931616 -0.0221842492
H -1.5785127055 3.0687501593 0.6241947841
H -1.1735200124 3.7966282413 -0.9407363036
H 0.4573644142 5.1640759000 0.0013901038
H 2.4339674047 4.0351135971 0.7736739470
H 1.4781366562 2.8999526987 1.7651590999
H 1.6500759491 2.9739267044 -1.2914906842
N 1.6437010143 0.0548441342 -0.1732295721
C 2.2000493321 1.2205096701 -0.2470695290
C 3.6956615128 1.3812531840 -0.3420611128
C 4.4955175194 0.3209927207 0.4407883016
C 3.7932231766 -1.0049612878 0.2534691481
C 2.4904471443 -1.0864923453 -0.0422237380
H 4.4984159886 0.5549592382 1.5165248395
H 3.9564528891 1.2607430443 -1.4085093428
H 3.9751104634 2.3980853357 -0.0583058070
H 1.9893429966 -2.0427298756 -0.1329075179
H 4.3430544715 -1.9291923985 0.3775079635
C 6.0005458721 0.3171562023 -0.0107139947
N 6.0588387719 -0.2046686564 -1.3805100130
C 6.5550131545 1.7567532817 -0.0315146784
C 6.9160729156 -0.5268294313 0.9519968878
N 6.7991887764 -0.0600521705 2.3379528113
N 6.6353828107 -1.9638120808 0.8837871226
H 6.9451515376 0.0483303775 -1.8165939896
H 6.0421018130 -1.2245571057 -1.3341331226
H 6.3186636083 2.3077239700 0.8853841412
H 7.6456512247 1.7420777481 -0.1449105917
H 6.1513922831 2.3210660166 -0.8769168664
H 7.9296399042 -0.4019748861 0.5326246840
H 7.4503308007 -0.5821240141 2.9239397233
H 7.0757675225 0.9175556787 2.4177305740
H 7.4951944945 -2.4974544366 0.9902350563
H 6.0340307941 -2.2201779555 1.6664677163
C -0.2477216746 4.9403360967 2.0243410592
N -0.7728420589 3.8613345178 2.8816121642
C 0.9396260010 5.5989615226 2.7524917201
C -1.3578692373 6.0256546607 1.8002111334
N -0.8954034802 7.0795153087 0.8928409788
N -2.5925177285 5.4228950459 1.2878876704
H -0.6708913414 4.1163888124 3.8629211816
H -1.7765112907 3.7828992308 2.7098684547
H 1.5099059603 6.2656862735 2.0973891162
H 0.5906329221 6.1849145026 3.6118163450
H 1.6312889854 4.8394695459 3.1296603196
H -1.6047243571 6.3921865067 2.8117569110
H -1.6137206468 7.7981361157 0.8100221293
H -0.0705184937 7.5485402337 1.2642931754
H -3.3908032636 6.0046755942 1.5354700083
H -2.5527093311 5.4071455167 0.2681900770
O -0.4737268921 -2.7233250820 -0.1836037240
C -0.8379915581 -3.1578685645 1.1307566512
C 0.1895520858 -4.2617996229 1.4297528359
C 0.2859563003 -5.0034449309 0.0766644689
C -0.0962187105 -3.9015783852 -0.9499286607
H 0.7195304920 -3.6028632045 -1.6057791617
H -0.9538012942 -4.2013900160 -1.5635469786
H -0.4796655343 -5.7846375514 0.0431330318
H -0.1218579224 -4.9158426185 2.2471791017
H 1.1507815304 -3.8005663849 1.6793134472
H -1.8527580935 -3.5954018285 1.1091205163
N -0.6491957964 -0.7972944476 1.6579249455
C -0.8599447329 -1.9981112326 2.0885169988
C -1.2112944898 -2.2674327974 3.5297699417
C -0.4641357467 -1.3405468405 4.5088059852
C -0.5088679157 0.0550576454 3.9243038481
C -0.6179998298 0.2668520834 2.6068326073
H 0.5920484178 -1.6446999755 4.5842236605
H -2.2910614871 -2.0713104213 3.6445108346
H -1.0478506204 -3.3222588211 3.7571591361
H -0.6115827917 1.2674107483 2.1873077114
H -0.4224404666 0.9134820243 4.5792244989
C -1.0573815892 -1.4366216038 5.9603160513
N -2.3543972202 -0.7476676885 5.9688628815
C -1.3068441951 -2.9076035658 6.3480566209
C -0.0875791561 -0.8184091501 7.0342902116
N 1.2240088242 -1.4747492781 7.0021548025
N 0.0723697159 0.6284730511 6.8702826063
H -2.8949035545 -1.0352711665 6.7845891418
H -2.1819152896 0.2522702793 6.0813993861
H -0.4473476587 -3.5493141593 6.1267263868
H -1.5211733110 -2.9879604242 7.4207253421
H -2.1737053407 -3.3096388657 5.8160204625
H -0.6220699181 -0.9556791058 7.9904155122
H 1.8097311412 -1.0962258759 7.7460478305
H 1.1410307932 -2.4724964653 7.1915874202
H 0.2112799747 1.0729810131 7.7753190971
H 0.9190124945 0.8016653695 6.3281501576
C 1.6599258922 -5.7002824094 -0.1662781229
N 2.6922705656 -4.6704632374 -0.3737009470
C 2.0456245275 -6.5265900965 1.0748944865
C 1.6015054463 -6.6542144760 -1.4137209704
N 0.5214499405 -7.6345240037 -1.2792036108
N 1.4374027442 -5.8833661467 -2.6479807230
H 3.6063640853 -5.0410081865 -0.1173487868
H 2.7368330831 -4.4721076817 -1.3747646369
H 1.2315592798 -7.1776795216 1.4097182611
H 2.9187309663 -7.1560630830 0.8631370377
H 2.3080708154 -5.8694449591 1.9095827339
H 2.6052353119 -7.1104858640 -1.4718307483
H 0.5447353993 -8.2808448566 -2.0674316279
H 0.6460364480 -8.2042852375 -0.4437992080
H 1.8918911171 -6.3515358883 -3.4287286363
H 0.4445677630 -5.8356185091 -2.8767124909
O -2.5436870536 -0.3117706431 -0.6701389209
C -2.9652992915 -0.3408466128 -2.0579894872
C -4.0029748856 0.7846729062 -2.1725500959
C -4.6777040085 0.7671277794 -0.7870863439
C -3.4868534737 0.4782510489 0.1334987430
H -2.9790491764 1.3940287505 0.4354719457
H -3.7306894259 -0.1254945291 1.0075631983
H -5.3734012219 -0.0768295743 -0.7310446719
H -4.7031111937 0.6012795672 -2.9907956701
H -3.5111938494 1.7508993104 -2.3279249184
H -3.4492091873 -1.3131784604 -2.2394691523
N -0.5887430906 -0.1378876627 -2.4867881828
C -1.7803476154 -0.2378067799 -2.9807488545
C -2.0234360355 -0.3686201119 -4.4613685806
C -1.0028494882 0.4041040467 -5.3229839269
C 0.3606696339 0.2174938235 -4.6927594524
C 0.5078444987 -0.0440547959 -3.3890895419
H -1.2334172755 1.4805099264 -5.3197540367
H -1.9175366396 -1.4396711162 -4.7087333727
H -3.0524182528 -0.0859894944 -4.6950481622
H 1.4740145489 -0.1624608058 -2.9142562515
H 1.2456848746 0.3068020758 -5.3105494961
C -1.0715455620 -0.0548120004 -6.8233702941
N -0.5567528557 -1.4263246904 -6.9008876644
C -2.5358128844 -0.0768245379 -7.3074342607
C -0.2675609254 0.9040090748 -7.7794333650
N -0.7225979454 2.2911773376 -7.6401407948
N 1.1801048937 0.8318221573 -7.5624578748
H -0.8582917597 -1.8656973668 -7.7701290191
H 0.4629858222 -1.3851474988 -6.9384905399
H -3.0746351622 0.8434307550 -7.0560172710
H -2.5738605703 -0.2024387496 -8.3960990520
H -3.0794202556 -0.9174161832 -6.8670684080
H -0.4423500127 0.4838742940 -8.7851465119
H -0.2291306772 2.8763345198 -8.3138700572
H -1.7119724471 2.3768009759 -7.8688066307
H 1.6791067641 0.8946296587 -8.4466150301
H 1.4723271240 1.6324169590 -7.0028529864
C -5.4747893156 2.0661511852 -0.4553412219
N -4.5435719290 3.2044642441 -0.3963285854
C -6.4923014478 2.3332464169 -1.5809461196
C -6.2431568025 1.9334867816 0.9083791618
N -7.0652369711 0.7219141647 0.9376340536
N -5.3087968692 1.9368373422 2.0375565228
H -5.0313658745 4.0589841030 -0.6604051332
H -4.2381573632 3.3306600588 0.5706201760
H -7.0785843660 1.4434851915 -1.8339333638
H -7.1903890715 3.1254535785 -1.2855893222
H -5.9828678954 2.6647466086 -2.4913114891
H -6.8265917690 2.8665012694 0.9939161927
H -7.6190567365 0.7044919872 1.7934602779
H -7.7356128414 0.7133919815 0.1699333018
H -5.7166454501 2.4087851872 2.8409913446
H -5.1303643440 0.9756266837 2.3255344596
