106
# extracted from Terachem optimization
Cr -0.0938156014 -0.1685432136 -0.1194615271
O 0.1142986106 1.8453306024 -0.4062260938
C 1.5011234320 2.3264890999 -0.4626207726
S 1.6249340449 3.7539748705 0.6561610933
C -0.0161253724 4.2672688073 -0.0296064750
C -0.8168853776 2.9604783802 -0.0604384933
H -1.2235943776 2.7408757271 0.9261106337
H -1.5977177399 2.9540388524 -0.8215034743
H 0.1720531836 4.6144226765 -1.0501509838
H 1.7035065046 2.6260007414 -1.4982366968
N 1.8873600400 -0.0240033159 0.0694225012
C 2.3687519797 1.1744755521 -0.0792791166
O 3.6437780997 1.3575184124 0.0944485502
C 4.2389169169 0.0547550110 0.5127877082
C 3.0138860430 -0.9175180312 0.4444579796
H 2.8158685551 -1.3984923444 1.4044567361
H 3.1417878972 -1.6922590569 -0.3158542197
H 4.9778937871 -0.1680744894 -0.2595766969
C 4.8818812640 0.1683066934 1.8732254507
C 4.7435895280 1.2625500150 2.6387365174
C 5.6708926340 -0.9933546706 2.3048961663
C 5.9487442250 -2.0879426821 1.5816121179
H 5.2262847150 1.3173096786 3.6094543540
H 4.2044325178 2.1454477517 2.3147208417
H 6.0720129416 -0.9161372045 3.3131047613
H 6.5667565473 -2.8806515886 1.9899957787
H 5.6192578150 -2.2340044131 0.5546672899
C -0.7286962127 5.3605556112 0.7535424343
C -0.4686961729 5.5935225160 2.0516509168
C -1.7375476337 6.1488566504 0.0296051814
C -2.0798172368 6.0519173441 -1.2628518002
H -0.9914318777 6.3797187489 2.5876863164
H 0.2790616053 5.0451135642 2.6168729174
H -2.2361844297 6.8980200040 0.6414449979
H -2.8274187938 6.7140053348 -1.6870728896
H -1.6235512173 5.3530009980 -1.9608714311
O -0.3063082843 -2.2021046488 0.1103638760
C -0.5534646911 -2.6690570070 1.4780988732
S 0.7274468014 -3.9036108269 1.8599833875
C 0.4424212565 -4.5474736392 0.1497675812
C 0.3195878500 -3.2787301585 -0.7082309879
H 1.3042110073 -2.9232945736 -1.0107290652
H -0.3213790039 -3.4280609367 -1.5774244746
H -0.5176208751 -5.0722913204 0.1765556733
H -1.5510729334 -3.1240477906 1.4996920860
N -0.3674066668 -0.2682455235 1.8972732447
C -0.5147081798 -1.4696123293 2.3669775964
O -0.6413410106 -1.6287607817 3.6532570947
C -0.5458712398 -0.2833439672 4.2888449711
C -0.3257892321 0.6573975720 3.0579313686
H 0.6411041233 1.1653224421 3.0964802875
H -1.1137700589 1.4094162330 2.9682239787
H -1.5259063013 -0.1268892368 4.7461728317
C 0.5486029702 -0.2493400733 5.3267971835
C 1.3907695460 -1.2783989124 5.5106153789
C 0.6245559149 0.9748567224 6.1355007801
C -0.2294261569 2.0082633284 6.1098556778
H 2.1603910598 -1.2274977498 6.2744169559
H 1.3171256004 -2.2073534399 4.9568153168
H 1.4600101352 1.0039292806 6.8315526708
H -0.0950089158 2.8563356142 6.7730118116
H -1.1110510716 2.0487867781 5.4728894420
C 1.5179576358 -5.4901584288 -0.3707405230
C 2.7548233134 -5.5246639482 0.1542854228
C 1.1483731862 -6.3593125048 -1.4986670544
C -0.0489235243 -6.4600985207 -2.0926365243
H 3.5018997231 -6.2086661728 -0.2364544661
H 3.0616539107 -4.9110950536 0.9961090564
H 1.9601862508 -6.9874700016 -1.8597533373
H -0.2051295147 -7.1569589023 -2.9093374201
H -0.9273553732 -5.8963155657 -1.7849769066
O -2.2208059986 -0.1543692126 -0.4003337808
C -2.6429446140 -0.3332237485 -1.7831931265
S -3.7314615865 1.0724579689 -2.1813224869
C -4.5088586218 0.7603839229 -0.5312736615
C -3.3178036352 0.4484142311 0.3971723134
H -2.9270182837 1.3634457997 0.8383883809
H -3.5849071067 -0.2679653600 1.1759597300
H -5.1260439034 -0.1351235150 -0.6525586333
H -3.2017122905 -1.2752379714 -1.8545660114
N -0.2149614048 -0.4366840568 -2.1357286620
C -1.4151998278 -0.4247301539 -2.6309193751
O -1.5561153998 -0.5332721919 -3.9229097756
C -0.1971720626 -0.5634742480 -4.5295142446
C 0.7327121030 -0.5673372758 -3.2717380675
H 1.4336175135 0.2698660133 -3.2881638744
H 1.2994749849 -1.4970428005 -3.1714676238
H -0.1560030846 -1.5117060757 -5.0696746718
C 0.0038880579 0.6081524235 -5.4612737852
C -0.9093827560 1.5840461969 -5.5865645753
C 1.2566267510 0.6074281110 -6.2287500110
C 2.1804530618 -0.3644361362 -6.2559156452
H -0.7421389390 2.4078700115 -6.2736010862
H -1.8602750662 1.5722071623 -5.0656640945
H 1.4092663186 1.4919078612 -6.8435274320
H 3.0626278678 -0.2750059587 -6.8810299086
H 2.0927215374 -1.2974606547 -5.7023668108
C -5.3734937246 1.8932275125 0.0017450624
C -5.2542152759 3.1578186067 -0.4371039697
C -6.3457676620 1.5451700665 1.0491378273
C -6.6094240613 0.3294625495 1.5482906738
H -5.8858206094 3.9432514929 -0.0336082003
H -4.5615441238 3.4577404752 -1.2176891322
H -6.9084389313 2.3941135045 1.4323935584
H -7.3698114399 0.1975754574 2.3107997623
H -6.1224302318 -0.5834319928 1.2115078016
