145
# extracted from Terachem optimization
Cr 0.0092227829 -0.0118877858 -0.1462248700
O 0.1473590486 1.9900134838 0.2219529683
C 1.5104317040 2.5760523382 0.1631809482
N 1.6963435932 3.6434966174 1.0642387709
C 0.7328839321 4.7642711793 0.9040970313
C -0.7054755099 4.1908125856 0.8452412878
C -0.8247886486 3.0207386666 -0.1264657701
H 0.8383590618 5.3684869619 1.8082365003
H 1.7486760010 3.3274664889 2.0289775362
H 1.5968980705 2.9695925737 -0.8594611100
H -1.7938231846 2.5235398315 -0.0696588530
H -0.6427041411 3.3213616778 -1.1668189505
H -1.4185981464 4.9669606777 0.5621986590
H -0.9854484410 3.8378969360 1.8462565751
N 2.0780626922 0.2357943475 0.1152417434
C 2.5111457008 1.4353983915 0.3109023669
S 4.1369179457 2.0195433332 0.6142899399
C 5.1034220795 0.4192151014 0.5755143501
C 4.4134723273 -0.5908364692 -0.3443950427
C 2.9994865213 -0.9123628356 0.1348178073
H 5.0398364629 0.0349250501 1.5997054769
H 4.3947041012 -0.2315678475 -1.3753887362
H 4.9995571389 -1.5178970972 -0.3445538091
H 3.0153310579 -1.3095909800 1.1591420202
H 2.5476222760 -1.6893809968 -0.4890243918
C 6.6250227524 0.6710816391 0.3618320915
C 7.2135501341 1.4640969932 1.5412082579
C 7.0192342311 1.2816446869 -0.9990813403
O 6.4590751039 0.5497858591 -2.0426539766
O 6.6731631071 2.6114386419 -1.0100979385
Cl 8.8814445759 1.1402630208 -1.2040900852
H 7.0643497404 -0.3333347473 0.3616931173
H 8.2983702710 1.5437482932 1.4492343183
H 6.8092618261 2.4790380669 1.5924974191
H 6.9932621008 0.9523596518 2.4839296635
H 7.0475291738 0.5873362799 -2.8155856301
H 6.9566608789 3.0198876173 -1.8465669621
C 1.1246320768 5.6862382493 -0.3030469356
C 2.6469775559 5.7574741365 -0.5052128696
C 0.5396433323 7.1013206912 -0.0882292692
O -0.8351403840 7.0207169631 0.0754039750
O 1.1978748127 7.6931669488 0.9669472658
Cl 0.8234860691 8.1474524034 -1.6273306986
H 0.6523155193 5.3168321956 -1.2209609080
H 2.8948215394 6.4858079244 -1.2797398443
H 3.1519518444 6.0500891866 0.4183013346
H 3.0484334596 4.7881451479 -0.8084598401
H -1.2181081249 7.9151693315 0.0667337165
H 0.9901127267 8.6422341239 1.0112676152
O -0.0485495827 -2.1705753826 -0.1528239073
C -0.2905088636 -2.8534372507 1.1359198722
N 0.2924991488 -4.1370828822 1.2278888364
C -0.1202587579 -5.0874887809 0.1619124151
C 0.0581631381 -4.3926927071 -1.2046138931
C -0.5814052655 -3.0078866390 -1.2271227250
H 0.5824138915 -5.9233592446 0.2110921396
H 1.3036097607 -4.0947435746 1.3259728112
H -1.3820313483 -2.9573336444 1.1937115102
H -0.3589416059 -2.4668785664 -2.1466129345
H -1.6686030465 -3.0774822461 -1.1064162172
H -0.3558822725 -4.9921265925 -2.0162702599
H 1.1350501663 -4.2854879720 -1.3901606743
N 0.2101204131 -0.6518173450 1.9608386720
C 0.1430107814 -1.9063523091 2.2475283844
S 0.3660565525 -2.7520172778 3.7733684583
C 0.8206129005 -1.3307145885 4.8881152134
C 0.0823941398 -0.0708861420 4.4340303495
C 0.4841630869 0.3388230134 3.0182472188
H 1.8913338082 -1.1699737794 4.7185976611
H -0.9986005795 -0.2064813397 4.5098312705
H 0.3478568280 0.7524569609 5.1093088493
H 1.5553972834 0.5802717792 2.9800422523
H -0.0507040424 1.2497414173 2.7386656552
C 0.7087151985 -1.7000526504 6.3966205857
C 1.8892104472 -2.5797221141 6.8388113492
C -0.6431739144 -2.3054253870 6.8268477364
O -1.7071127597 -1.5942116255 6.2752893169
O -0.6556882670 -3.6389663020 6.4977759924
Cl -0.8010380449 -2.1394250147 8.6920814192
H 0.7751283836 -0.7380382245 6.9168920938
H 1.8291646601 -2.7998953572 7.9069970468
H 1.9094897708 -3.5319921377 6.3013910872
H 2.8330485179 -2.0557646088 6.6556733491
H -2.4435588392 -1.5746561118 6.9092250654
H -1.5308703891 -4.0157726450 6.6953906375
C -1.5218530428 -5.6717037921 0.5419680257
C -1.3617884967 -6.5434882816 1.7986185379
C -2.1597461026 -6.4445882493 -0.6276484324
O -2.5861227818 -5.5321843822 -1.5939438064
O -1.2497749640 -7.3727288308 -1.0889112984
Cl -3.7016384808 -7.3528614337 -0.0723108565
H -2.2194074460 -4.8539501158 0.7514190654
H -2.3294232725 -6.7940446329 2.2364243856
H -0.8479884050 -7.4775972273 1.5509221702
H -0.7718355367 -6.0077145916 2.5461188524
H -3.1764172541 -5.9832915762 -2.2222799587
H -1.6862979274 -8.0233352736 -1.6655772971
O -2.1245361127 0.0206169861 -0.3270535616
C -2.6290766221 -0.1548124124 -1.6956086448
N -3.8859660977 0.4577367058 -1.9334454895
C -4.9659489018 0.0171397016 -1.0066262627
C -4.4480096247 0.1414980303 0.4444477843
C -3.0876551176 -0.5186473568 0.6282841680
H -5.7817080579 0.7347930119 -1.1280597768
H -3.8157821100 1.4721997006 -1.9647657161
H -2.7434396797 -1.2387930566 -1.8282108457
H -2.6609384068 -0.3266852897 1.6151312778
H -3.1491205720 -1.6022422785 0.4779439048
H -5.1534099682 -0.2828857821 1.1593529554
H -4.3535433485 1.2112891078 0.6734820563
N -0.3135457319 0.3134562997 -2.2083178655
C -1.5300904559 0.3091541665 -2.6517836707
S -2.1519004403 0.6469816706 -4.2520154146
C -0.5870004752 1.1528551829 -5.1319191969
C 0.5947298808 0.3511951549 -4.5819634007
C 0.8218174946 0.6273121922 -3.0968419593
H -0.4393019628 2.2034806800 -4.8584128469
H 0.4575037329 -0.7164097587 -4.7677722421
H 1.5017896075 0.6527497226 -5.1207788703
H 1.0847121773 1.6834583490 -2.9427163417
H 1.6754463565 0.0449757731 -2.7357187907
C -0.7599066990 1.1620929413 -6.6796538480
C -1.5375888999 2.4052591338 -7.1429034887
C -1.3509793787 -0.1322626313 -7.2730930093
O -0.7397692868 -1.2573879272 -6.7194296355
O -2.7126415523 -0.1160129612 -7.0929194479
Cl -0.9779156457 -0.1734256140 -9.1114819818
H 0.2621604344 1.2218035194 -7.0703968633
H -1.6387958103 2.4140029658 -8.2303277792
H -2.5430132670 2.4398848622 -6.7138821063
H -1.0005376798 3.3125321883 -6.8473898371
H -0.6511624711 -1.9443305106 -7.4011898566
H -3.0926690226 -0.9594370349 -7.3947988788
C -5.5223784572 -1.3579552293 -1.5144012499
C -6.2873743704 -1.1134446383 -2.8249548318
C -6.3813193463 -2.0640907893 -0.4492557180
O -5.5436925825 -2.5312265408 0.5640860745
O -7.3566475734 -1.1895485386 -0.0191632300
Cl -7.2157641654 -3.5819151563 -1.1618822828
H -4.6925099278 -2.0466027800 -1.7042730999
H -6.5138165188 -2.0501917943 -3.3370773343
H -7.2313282484 -0.5965635812 -2.6260760311
H -5.6807225112 -0.4935407639 -3.4898034227
H -6.0328822854 -3.1663445113 1.1154436398
H -8.0413599804 -1.6607616244 0.4864551928
