127
# extracted from Terachem optimization
Cr -0.0322984742 0.1486417018 0.1186075147
O 0.1881407470 2.1405415450 -0.1632507023
C 1.5606574761 2.6183968566 -0.1280622982
O 1.5472392805 3.6602860303 0.7695549250
C 0.3833147375 4.4415798354 0.3911337103
C -0.6433610043 3.3748992477 -0.0549890101
H -1.4244370575 3.1947827278 0.6723466411
H -1.0795972228 3.5688190218 -1.0324928106
H 0.6590882359 5.1079807474 -0.4314720399
H 1.8320504760 2.9495467692 -1.1432953121
N 1.9629441523 0.2799235787 0.3725442835
C 2.4566861186 1.4835623544 0.3112250137
O 3.6652129686 1.8681135439 0.5642274720
C 4.7488674784 0.8810318228 0.8216165333
C 4.3121869544 -0.4844867428 0.3251406654
C 2.8897316342 -0.7995971801 0.7942530198
H 4.9053718309 0.9078435344 1.8996639363
H 4.3587737482 -0.5084596030 -0.7684669637
H 5.0089632194 -1.2365734182 0.7022220402
H 2.8426675439 -0.8813615809 1.8872916109
H 2.5457380746 -1.7487532613 0.3861232853
C 5.9833367065 1.4956751536 0.1143766855
O 5.7164689639 1.6819148091 -1.2500351512
O 6.1716295502 2.7277764095 0.7480802510
C 7.2438301748 0.5960702671 0.3069913470
O 7.1675642312 0.0051269669 1.5735888823
O 7.2175403309 -0.3571818164 -0.7413396215
H 6.2515447356 1.0218773511 -1.7329683360
H 6.6292577123 3.3121343266 0.1191503682
H 8.1287800493 1.2400513221 0.2209326184
H 8.0500296438 -0.0652662129 1.9697917707
H 8.0886014662 -0.7784398196 -0.8311220002
C -0.0242012436 5.3127227580 1.5938089433
O -0.7009361766 4.4734452882 2.5076517719
O 1.0873783223 5.9255762711 2.1773695942
C -0.9028353112 6.4960305944 1.1097742451
O -0.1857416665 7.3309492464 0.2441832160
O -1.9732015482 5.9668988775 0.3693395094
H -0.8898727200 5.0032432870 3.3019179863
H 1.7691248209 5.2546214870 2.3546039044
H -1.2560612960 7.0488305794 1.9972104340
H 0.4544299280 7.8500365703 0.7607236264
H -2.2927307833 6.7001938373 -0.1866631316
O -0.2797973783 -1.8420375765 0.3158353134
C -0.6156381814 -2.3037520221 1.6576289219
O 0.2451747620 -3.3492231312 1.8946828011
C 0.2356358824 -4.1233406551 0.6723467459
C 0.1262759264 -3.0545511611 -0.4393494665
H 1.0745130572 -2.8495131165 -0.9267076491
H -0.6507816362 -3.2798140294 -1.1677469506
H -0.6343094179 -4.7869405358 0.6711702432
H -1.6702896645 -2.6206647300 1.6493250906
N -0.2451818310 0.0415144265 2.1575081574
C -0.4057403226 -1.1599677261 2.6269130168
O -0.4339749157 -1.5499100366 3.8621541577
C -0.2628095018 -0.5627880165 4.9558919978
C -0.7377370692 0.7944342278 4.4731164741
C -0.0768978688 1.1442916224 3.1368786211
H 0.8026932726 -0.5736831987 5.1884429740
H -1.8275290645 0.7803055764 4.3668819321
H -0.4873451867 1.5468934976 5.2246384741
H 0.9988707736 1.3199957870 3.2630934868
H -0.5035181031 2.0560271754 2.7161855021
C -1.0369375265 -1.1757142935 6.1489197832
O -2.3892601038 -1.3437002997 5.8246852250
O -0.4317408399 -2.4203436495 6.3588433873
C -0.8871400298 -0.2906554034 7.4247277828
O 0.3963206934 0.2693085850 7.4150190533
O -1.9131983580 0.6853009692 7.3626423421
H -2.8871695440 -0.6721528468 6.3306097339
H -1.1037702362 -3.0018013406 6.7547610193
H -1.0292149420 -0.9415475956 8.2973243881
H 0.7255777859 0.3746297150 8.3213557092
H -2.0565869894 1.0762333986 8.2404723845
C 1.4998529761 -4.9989441813 0.6453683565
O 2.5971301996 -4.1355657041 0.4286376621
O 1.6342842991 -5.7273563952 1.8282214139
C 1.3626909519 -6.0729189680 -0.4632444862
O 0.2438264795 -6.8880363456 -0.2398289352
O 1.1571777098 -5.3865518800 -1.6663782058
H 3.4047469292 -4.6771398873 0.4661595483
H 1.6030558066 -5.1190670682 2.5872743336
H 2.2903251014 -6.6698899601 -0.4819021304
H 0.4498267960 -7.5231329946 0.4675195138
H 0.9314092339 -6.0532191450 -2.3381511710
O -2.1076794434 0.1642349440 -0.1207326834
C -2.5490623319 0.1080192051 -1.5034478600
O -3.2910062876 1.2572318550 -1.6846478732
C -4.1528368500 1.2944560830 -0.5176081295
C -3.2307453370 0.7905933404 0.6172203556
H -2.8304246259 1.5956931536 1.2236983947
H -3.6973691439 0.0272660648 1.2378949690
H -4.9971321440 0.6165345787 -0.6750806694
H -3.1598624667 -0.8000916425 -1.6279403314
N -0.1485907851 -0.0678049253 -1.9166228948
C -1.3433400568 0.0343152851 -2.4207896350
O -1.6880429825 0.0465160515 -3.6709047259
C -0.6807435378 -0.1584149904 -4.7415869715
C 0.5280835947 -0.8733262722 -4.1636165160
C 0.9796854859 -0.1988948422 -2.8664772804
H -0.4399357099 0.8407664958 -5.1046554516
H 0.2786737504 -1.9219275744 -3.9733649533
H 1.3356843427 -0.8558115118 -4.8987291501
H 1.3836713621 0.8021359309 -3.0625331932
H 1.7663769084 -0.7798519912 -2.3789678803
C -1.4542785623 -0.9220252859 -5.8460550585
O -1.9825263591 -2.1160693051 -5.3322642015
O -2.4849705418 -0.0506131047 -6.2185287201
C -0.5384056625 -1.2023566646 -7.0759885265
O 0.3524742062 -0.1331857705 -7.2702666616
O 0.1660970931 -2.3863852939 -6.7846676249
H -1.4768568825 -2.8482680266 -5.7334096250
H -3.2192202945 -0.5948773766 -6.5518241247
H -1.1902764374 -1.3334200410 -7.9510322972
H 0.1432789508 0.3286557769 -8.0967428641
H 0.6743486254 -2.6580370731 -7.5678712658
C -4.7099083175 2.7183908185 -0.3401090831
O -3.6145224223 3.5205021794 0.0194124628
O -5.3447078223 3.1647389443 -1.5028592767
C -5.8301451659 2.7057972572 0.7307036157
O -6.8837195247 1.8611612892 0.3549942484
O -5.2682449564 2.1892171727 1.9042911166
H -3.8986810023 4.4282320893 0.2216576098
H -4.7186575794 3.1226969491 -2.2459398070
H -6.1836610949 3.7426529113 0.8657652304
H -7.4084460845 2.2998918787 -0.3366222975
H -6.0028857323 2.0310157775 2.5224080124
