133
# extracted from Terachem optimization
Cr -0.0574103349 0.0682856959 -0.1019778884
N 0.2830744411 2.0647202605 0.1661370886
C 1.5399444344 2.4419681142 0.1293626670
O 1.6845594165 3.7612330864 0.2167268337
C 0.3953866725 4.2980327179 0.3221051902
C -0.4602797625 3.2465768543 0.2833337454
H -1.5364055476 3.2525636688 0.3189850480
O 2.1843622853 0.2201802765 -0.1147167276
C 2.7322697963 1.5462151444 -0.0568339105
C 3.7868620605 1.7161371957 1.0142544570
C 4.3503626837 0.6822432902 1.6525279803
C 3.9055134517 -0.7315118241 1.3385516035
C 3.2081596775 -0.8081235369 -0.0083335720
H 4.0984891872 2.7392912835 1.2063975673
H 3.1706094039 1.7863590941 -1.0434589445
H 2.6810982101 -1.7536957213 -0.1513870092
H 3.9187735127 -0.6688658186 -0.8334243747
H 4.7798950640 -1.3907968175 1.3398581840
H 3.2283407965 -1.0845753478 2.1292615605
C 5.4431379736 0.8571409727 2.7091158202
N 5.6023804068 2.1846206816 3.2846491147
C 6.8515567095 0.3748470376 2.2206802811
O 6.8528739680 -1.0343521337 1.9681569234
C 7.3481209354 1.0636961071 0.9540230345
H 5.1865692865 0.1818077617 3.5396020699
H 5.9402478201 2.8654870369 2.6094852878
H 4.7374935342 2.5368273460 3.6862641550
H 7.5297237266 0.6138136134 3.0480751504
H 7.1551446024 -1.4910370491 2.7677666575
H 7.3854375926 2.1527868981 1.0677754679
H 8.3595197313 0.7171694213 0.7261655487
H 6.7076234049 0.8254192069 0.0982122817
C 0.2990825139 5.8086524051 0.4084690784
N 1.3929005759 6.4551774488 1.1165959628
C -1.0619276038 6.2667227977 1.0046261261
O -2.1429082677 5.6588018118 0.2860181378
C -1.2420838101 5.9427200484 2.4827498017
H 0.3287199484 6.1877306776 -0.6232043690
H 1.5264871498 6.0721864619 2.0487965477
H 2.2731223874 6.3824284498 0.6147763732
H -1.0818196268 7.3558884801 0.8823067772
H -2.3472041344 6.2100309662 -0.4848681880
H -0.4783603189 6.4414181688 3.0871579572
H -2.2200136522 6.3034126172 2.8118779159
H -1.2001203517 4.8638658268 2.6709656673
N -0.1872804211 -1.9357336219 0.4325942386
C -0.2479560316 -2.3032172066 1.6831506214
O -0.2606894387 -3.6312573827 1.8415865125
C -0.2038926584 -4.1758722335 0.5628415739
C -0.1639017910 -3.1282344339 -0.3015471905
H -0.1249521842 -3.1614834309 -1.3773567628
O -0.1698713594 -0.0647801486 2.2327046890
C -0.3469306100 -1.3595389376 2.8372712878
C 0.6520667508 -1.6252457028 3.9402977256
C 1.3318213771 -0.6440711963 4.5479089906
C 1.1237839395 0.7945650925 4.1176526981
C -0.1268854566 0.9558525705 3.2694598489
H 0.7714763787 -2.6651493112 4.2317651089
H -1.3762828167 -1.4136809137 3.2366066037
H -0.1632646272 1.9183279116 2.7594751670
H -1.0367670869 0.8502617643 3.8739793061
H 1.0511763543 1.4295541676 5.0061039044
H 2.0048151038 1.1332286770 3.5544696475
C 2.3705791103 -0.9122873261 5.6421697554
N 2.8731164897 -2.2767060453 5.7472105115
C 1.9224072899 -0.4649003318 7.0633157269
O 1.7336794612 0.9522870796 7.0125238974
C 0.6697573245 -1.1677378751 7.5865255108
H 3.2330703814 -0.2696264043 5.4129052115
H 2.1493991345 -2.9285880719 6.0403808505
H 3.2408093375 -2.6075150789 4.8586287110
H 2.7725565772 -0.7072136641 7.7142347387
H 1.5949203134 1.2688863216 7.9191382169
H 0.8106421919 -2.2515814554 7.6662685722
H 0.4326763768 -0.8089713932 8.5946460050
H -0.1948163801 -0.9691962674 6.9443134952
C -0.2230248918 -5.6887062707 0.4628233201
N 0.4016040603 -6.3851986880 1.5773805792
C 0.3857681687 -6.1846400527 -0.8788163080
O -0.2682279218 -5.5463405905 -1.9831042943
C 1.8826235192 -5.9367478790 -1.0198109385
H -1.2785728614 -5.9960696548 0.4565333146
H 1.3459064681 -6.0527634472 1.7549341703
H -0.1321742714 -6.2870320673 2.4363059192
H 0.2084750134 -7.2663505820 -0.8984114587
H -1.0833171263 -6.0342204793 -2.1783439765
H 2.4395361977 -6.4548616610 -0.2332945405
H 2.2224357494 -6.3241534769 -1.9838678505
H 2.1193328155 -4.8674240143 -0.9814868994
N -2.1031354452 0.3125162051 -0.3336176352
C -2.4630681485 0.1443280198 -1.5735050519
O -3.7564385602 0.4091853100 -1.7987025190
C -4.2819866167 0.7922373660 -0.5674377388
C -3.2601916114 0.7267277550 0.3290563789
H -3.2815904374 0.9471504925 1.3829853433
O -0.2013642594 -0.2349494755 -2.0481804758
C -1.5331474477 -0.2835690098 -2.6673591170
C -1.6257697629 0.5810053826 -3.8985107808
C -0.5709110813 1.1267922951 -4.5142518075
C 0.8240542123 0.8841696534 -3.9770498636
C 0.8708916015 -0.3178478862 -3.0541524731
H -2.6345504102 0.7319492293 -4.2724923369
H -1.7214946646 -1.3400683353 -2.9193462438
H 1.7840226615 -0.3712099297 -2.4645455169
H 0.7233511358 -1.2560889614 -3.5992535917
H 1.5098734624 0.7222836328 -4.8162513245
H 1.1824752469 1.7833113782 -3.4541530413
C -0.7111561338 2.0145893143 -5.7530382598
N -2.0534444373 2.4713751052 -6.0816652169
C -0.0898299509 1.3722132702 -7.0388507438
O 1.3317515818 1.2485389828 -6.9233038629
C -0.6310654106 -0.0130555582 -7.3733861380
H -0.1087868127 2.9155270259 -5.5610596142
H -2.6682638768 1.7054312576 -6.3455382348
H -2.4858358955 2.9687604436 -5.3074838481
H -0.3455061332 2.0633597689 -7.8508973995
H 1.7368712777 2.0848960408 -7.2003527605
H -1.7215180437 -0.0089724077 -7.4776972494
H -0.2044387018 -0.3511371584 -8.3211853209
H -0.3595540807 -0.7406144487 -6.6005259546
C -5.7621558146 1.1231097781 -0.5314330012
N -6.3319473680 1.5488515949 -1.8002737599
C -6.0944274626 2.1671348798 0.5731542453
O -5.6048146786 1.7150573243 1.8409508075
C -5.5222819053 3.5568709313 0.3225263968
H -6.2897237837 0.2009941521 -0.2483479423
H -5.8110063631 2.3174564592 -2.2144266853
H -6.3620140824 0.7918724944 -2.4774100804
H -7.1885757791 2.2375013200 0.5849069087
H -6.2656183275 1.1215467276 2.2302889474
H -5.9046047178 3.9710287716 -0.6157833786
H -5.8313000094 4.2227958214 1.1326356351
H -4.4271883257 3.5529420820 0.2946116281
