166
# extracted from Terachem optimization
Cr -0.0768630239 -0.0222678239 0.0728387175
O 0.1249568171 2.1321478986 0.0391355738
C 1.3432670007 2.5955521320 -0.6104968084
C 1.7525350150 3.8078931024 0.1721967973
C 0.8361348837 4.1392512160 1.0877073296
C -0.3086756041 3.1502308434 1.0017828216
H -0.5273088460 2.6404969886 1.9428452063
H -1.2303931218 3.5942832040 0.6138106462
H 2.6881440713 4.3146326557 -0.0238778068
H 1.1038932377 2.8269682093 -1.6605393543
N 1.9776413654 0.2206476538 -0.2796787015
C 2.3075814874 1.4502620245 -0.5559277970
O 3.6027823621 1.6014617285 -0.8291118736
C 4.1864699818 0.3371092117 -0.7131885125
C 3.1707016017 -0.5047036762 -0.3722436476
H 3.1931545572 -1.5632690797 -0.1760950259
C 5.6728311278 0.3025674012 -0.9706099596
C 5.9274694064 0.8821450278 -2.3899730252
C 6.3586677511 1.2420341589 0.0607651654
C 6.2762407115 -1.1566741110 -0.8614560097
C 6.1748168748 -1.7519212374 0.5560539270
C 5.6951811977 -2.1347260184 -1.9007771721
O 7.6606634597 -0.9514225991 -1.1653903293
H 5.6280150704 1.9329455921 -2.4288113109
H 6.9925003512 0.8137424451 -2.6167342340
H 5.3722695767 0.3427370031 -3.1633472034
H 6.0967408393 0.9855797428 1.0914177483
H 7.4414262275 1.1655985246 -0.0529666745
H 6.0638396033 2.2804575630 -0.1150977433
H 5.1447280167 -1.8523000795 0.9126335911
H 6.6177971797 -2.7548709697 0.5604651749
H 6.7304846351 -1.1441088022 1.2732996563
H 5.8804168313 -1.7807840657 -2.9173745118
H 6.1881950707 -3.1082878803 -1.7962842883
H 4.6199910671 -2.3041373898 -1.7820392766
H 8.1177281675 -1.8051835637 -1.0981462818
C 0.9238451386 5.2627884161 2.1176411002
C 0.6303321365 4.6752659355 3.5217775442
C 2.3722795842 5.8063130252 2.1497606797
C -0.0788294430 6.4614106921 1.8038425278
C 0.0998009655 7.0097954927 0.3782631645
C -1.5634096777 6.1295559687 2.0449221744
O 0.3068374350 7.4601324620 2.7556281701
H 1.3950651013 3.9357651859 3.7880185795
H 0.6621136793 5.4748838173 4.2653552707
H -0.3502681070 4.1939460225 3.5933886253
H 2.6860670852 6.2306038638 1.1920627333
H 2.4524846134 6.5952442007 2.8967678803
H 3.0713862982 5.0039626791 2.4095796308
H -0.1739604559 6.2732265196 -0.3853459028
H -0.5502350194 7.8811188440 0.2371855941
H 1.1271345602 7.3345610931 0.1983954813
H -1.7463340646 5.8251264713 3.0779411487
H -2.1616680351 7.0297376611 1.8596382271
H -1.9522452251 5.3608103657 1.3690129999
H -0.2686819998 8.2327528052 2.6351058541
O -0.4256284629 -2.0961426170 0.2458227694
C -0.7841357160 -2.5250917155 1.5867112305
C -0.1211745857 -3.8645673034 1.7343384980
C 0.4377996147 -4.2700140644 0.5882101361
C 0.1824337375 -3.2199648253 -0.4715248742
H 1.0786657107 -2.8458300436 -0.9720387930
H -0.5314843971 -3.5464185852 -1.2346250005
H -0.1343375915 -4.3948743457 2.6768619386
H -1.8819125613 -2.5825787255 1.6530649716
N 0.0507877987 -0.2443085552 2.1628399276
C -0.2777945185 -1.4605165713 2.5151118515
O -0.0880888264 -1.7050233060 3.8072573714
C 0.4301747573 -0.5333565862 4.3682820548
C 0.5183929457 0.3548384776 3.3408322840
H 0.8780360614 1.3694096935 3.3420115662
C 0.7235961982 -0.6303954570 5.8454852751
C -0.5909453188 -1.0440366571 6.5659073009
C 1.7623127134 -1.7690792140 6.0515051670
C 1.2747316436 0.7225343274 6.4531077416
C 2.6141120290 1.1704257571 5.8364596121
C 0.2474896025 1.8687051996 6.4012455717
O 1.5071921991 0.3807988758 7.8238852122
H -0.8923189941 -2.0489137796 6.2577942193
H -0.4210954780 -1.0477738647 7.6438002674
H -1.4163682611 -0.3603202574 6.3461768525
H 2.6699667352 -1.6116343776 5.4616990598
H 2.0360261039 -1.8107860107 7.1068807299
H 1.3334537504 -2.7330342644 5.7634431350
H 2.5440142774 1.4158916059 4.7720491211
H 2.9630486329 2.0731758951 6.3515128807
H 3.3816709487 0.4038360501 5.9623249324
H -0.6338891105 1.6296911917 7.0003463756
H 0.6940318116 2.7784501239 6.8197422717
H -0.0802789924 2.1071645104 5.3841320050
H 1.8225460480 1.1739030435 8.2859979891
C 1.2636550991 -5.5340011884 0.3672395795
C 2.7107709809 -5.1121199286 -0.0003385104
C 1.3460315067 -6.3285376752 1.6916058442
C 0.6538132536 -6.4664039366 -0.7707589432
C -0.8432947819 -6.7414457543 -0.5470823570
C 0.8899028668 -5.9545650874 -2.2047714670
O 1.3871176928 -7.6879259838 -0.6245073736
H 3.1768221034 -4.5913169291 0.8436855729
H 3.3030141502 -6.0045427838 -0.2180844031
H 2.7595734818 -4.4555272792 -0.8757537938
H 0.3636239738 -6.6506407416 2.0493740810
H 1.9536440874 -7.2202671515 1.5458926035
H 1.8104555266 -5.7173223015 2.4729293591
H -1.4570861612 -5.8387339892 -0.6502042840
H -1.2002812078 -7.4605539084 -1.2934926221
H -1.0247334466 -7.1740723126 0.4395280812
H 1.9571445114 -5.8855187025 -2.4270786869
H 0.4526714548 -6.6678106510 -2.9139314088
H 0.4229142652 -4.9863253453 -2.4139676751
H 1.0834738442 -8.3083241373 -1.3069638418
O -2.2460619369 0.0339384781 -0.0977529760
C -2.7284410102 -0.4571454310 -1.3792302793
C -3.8717185810 0.4532695021 -1.7202118719
C -4.1711605275 1.2711380960 -0.7055544136
C -3.2276997168 0.9765212558 0.4414768400
H -2.6793534962 1.8468410359 0.8048231506
H -3.7167927972 0.4893306980 1.2918500383
H -4.3643739215 0.3994031030 -2.6817008960
H -3.0467559731 -1.5037404491 -1.2474179347
N -0.3172591988 -0.2812501777 -1.9956291146
C -1.5708464261 -0.4186875864 -2.3331108044
O -1.7487147576 -0.5626221924 -3.6452074576
C -0.4787908929 -0.5086189475 -4.2312072482
C 0.3918790968 -0.3283346650 -3.2006601562
H 1.4646912325 -0.2399628178 -3.2092371504
C -0.4712334362 -0.6368077419 -5.7340790862
C -1.1731422272 -1.9706514599 -6.1105226713
C -1.3171838278 0.5299306664 -6.3162261474
C 0.9928832774 -0.6008434500 -6.3360280188
C 1.7052939993 0.7474282092 -6.1144472782
C 1.8800041949 -1.7641833113 -5.8511463490
O 0.7663817374 -0.7658011279 -7.7395483911
H -2.2221975147 -1.9477947734 -5.8025650297
H -1.1305663458 -2.1017319466 -7.1928477904
H -0.7007028224 -2.8365436520 -5.6372865364
H -0.9643203729 1.5079693819 -5.9762048611
H -1.2625677396 0.4992395946 -7.4057404737
H -2.3641687699 0.4264794582 -6.0175579083
H 1.8150491266 1.0114405198 -5.0578145140
H 2.7135915404 0.7021855341 -6.5432049825
H 1.1715695782 1.5573694326 -6.6161978129
H 1.4412921505 -2.7289548443 -6.1148573587
H 2.8567219437 -1.7028035895 -6.3453569795
H 2.0635053589 -1.7508571242 -4.7720012466
H 1.6223355010 -0.7207606554 -8.1951622169
C -5.2294656273 2.3701336315 -0.6952495339
C -4.5468656040 3.7164715693 -0.3412339246
C -5.8183814779 2.5217903469 -2.1174704659
C -6.4080622137 2.0590524777 0.3312266601
C -6.9756809258 0.6417845799 0.1437087014
C -6.0371948802 2.2791020875 1.8101527619
O -7.4081162169 3.0243336925 -0.0144678679
H -3.8154949528 3.9838260803 -1.1127245693
H -5.3016391163 4.5057981660 -0.3011157276
H -4.0335714192 3.6963384876 0.6257348297
H -6.3302766820 1.6175822678 -2.4590048257
H -6.5458885601 3.3321002640 -2.1286660876
H -5.0233032872 2.7557294608 -2.8336752270
H -6.2550155540 -0.1337270598 0.4276890405
H -7.8579608065 0.5132608716 0.7811992523
H -7.2865433252 0.4662735789 -0.8888804812
H -5.7652917464 3.3198807147 1.9997543904
H -6.9094758788 2.0492692376 2.4339747047
H -5.2277511183 1.6312304740 2.1631658225
H -8.1540331678 2.9208128779 0.5984773879
