154
# extracted from Terachem optimization
Cr 0.0558268573 -0.1414744121 0.0256086344
N -0.1654092104 1.9031454419 -0.2092735118
C 0.9622055877 2.5753793430 -0.3646042130
N 1.0210075039 3.8573572869 -0.7179511398
C -0.1317143478 4.6370996816 -1.2281691115
C -1.3827905371 3.9050934608 -0.8199079308
C -1.3603877233 2.6410086823 -0.3814772815
H -0.0992703053 5.6243381099 -0.7526550616
H 1.9383968214 4.2775208243 -0.8289136831
H -2.2654091638 2.1223092970 -0.0936759497
H -2.3232289989 4.4373136970 -0.9002452874
N 2.0514416514 0.5216357289 0.0282367462
C 2.2185102516 1.8057346710 -0.0822781976
S 3.6743214685 2.7313225778 0.1088459410
C 5.0328115294 1.4337092298 0.1766047411
C 4.5085915664 0.1045965606 -0.3524633555
C 3.2088835290 -0.3469970733 0.3155667885
H 5.2967438619 1.3611478064 1.2345791002
H 4.3796487922 0.1714608506 -1.4371128147
H 5.2744328780 -0.6548005995 -0.1632011024
H 3.3295768101 -0.3965588549 1.4072131416
H 2.9403779007 -1.3492170342 -0.0193185944
C 6.2486977706 2.0033338667 -0.5946338955
O 5.8590272250 2.0498646805 -1.9569067831
C 7.4887774174 1.1621715699 -0.3279965324
C 7.8583271888 0.1176337165 -1.1856026342
C 8.9932409037 -0.6490290471 -0.9245032454
C 9.7620209509 -0.3738563803 0.2087298022
Cl 11.1788969213 -1.3312252559 0.5429519179
C 9.4127738301 0.6684456619 1.0722133585
C 8.2811158184 1.4316962566 0.7961911136
H 6.4349977753 3.0197823617 -0.2106061340
H 6.6125664733 2.3765488916 -2.4763568286
H 7.2705301354 -0.0849728865 -2.0758830375
H 9.2873251941 -1.4481841789 -1.5962999495
H 10.0305123722 0.8857194103 1.9367285470
H 8.0282211066 2.2581022705 1.4573477496
C 0.0151409568 4.8724996457 -2.7581675383
O 0.0524452015 3.5804307238 -3.3638856477
C -1.0810545385 5.7684143200 -3.3016813953
C -2.2878279533 5.2325061216 -3.7730649320
C -3.2958885257 6.0649360300 -4.2564414872
C -3.1009524259 7.4482753464 -4.2626462317
Cl -4.3584049616 8.4922094162 -4.8641643029
C -1.9037100747 8.0010859316 -3.7995747748
C -0.9006106248 7.1578661753 -3.3271107496
H 0.9840603316 5.3811720574 -2.8985531058
H 0.0136839824 3.7227407279 -4.3241233306
H -2.4353967109 4.1562588311 -3.7757757893
H -4.2259422673 5.6504758043 -4.6303784135
H -1.7573702802 9.0754145006 -3.8235369996
H 0.0365061214 7.5938016968 -2.9876208627
N 0.4626743274 -2.1329456747 0.2863189906
C 0.3199351067 -2.5292283661 1.5408588956
N 0.2179555361 -3.8092017290 1.8939043189
C -0.1616923189 -4.8572151275 0.9169098061
C 0.4413983900 -4.4452149331 -0.4024258257
C 0.6549870235 -3.1515622410 -0.6713354498
H 0.2656815221 -5.8013144483 1.2658959874
H 0.1310758763 -4.0345673545 2.8794907435
H 1.0389247037 -2.8134691399 -1.6255048626
H 0.6612811720 -5.2079325002 -1.1397035787
N 0.1821726774 -0.2351836507 2.0916420353
C 0.3327731205 -1.4373433950 2.5690748863
S 0.6000815635 -1.9134520450 4.2146185470
C 0.2660458351 -0.3480862374 5.2026532995
C -0.4850644104 0.6625913777 4.3442445326
C 0.1845838530 0.9304870158 2.9950555041
H 1.2559428313 0.0253097597 5.4765880052
H -1.5151324666 0.3224377763 4.1996094208
H -0.5309835101 1.6046444080 4.9008351068
H 1.2282476135 1.2458070539 3.1362495458
H -0.3272646941 1.7393979918 2.4705616183
C -0.4691912039 -0.7760082597 6.4958846492
O -1.7505649097 -1.2270353514 6.0883012826
C -0.4980706907 0.3691805357 7.4970702600
C -1.5777361343 1.2602573683 7.5573740971
C -1.5824610844 2.3090258597 8.4760408141
C -0.4953417224 2.4731849380 9.3378198493
Cl -0.4950687083 3.7850220346 10.4842843525
C 0.5871950503 1.5898933037 9.2971916017
C 0.5765027281 0.5420507372 8.3800509330
H 0.1078892366 -1.6031685818 6.9406804552
H -2.2447980086 -1.4904262610 6.8825257285
H -2.4319943966 1.1224757556 6.9009997069
H -2.4245459214 2.9903629586 8.5329523251
H 1.4151087697 1.7144558919 9.9866336141
H 1.4099892704 -0.1575173126 8.3694086460
C -1.7140821949 -4.9938388423 0.8679946659
O -2.1816067654 -3.6945601742 0.5588614379
C -2.1470060207 -6.0710170278 -0.1103569315
C -2.4169717794 -5.7654349513 -1.4514318278
C -2.7840644215 -6.7662589657 -2.3500250255
C -2.8764623525 -8.0881665536 -1.9085124887
Cl -3.3346586527 -9.3407658537 -3.0307322069
C -2.6143631910 -8.4127044455 -0.5747170794
C -2.2552936513 -7.4020213004 0.3147609186
H -2.0336945564 -5.2907945140 1.8822430422
H -3.1310710372 -3.7174315844 0.3231137015
H -2.3538650793 -4.7362402085 -1.7894770149
H -2.9980659473 -6.5294700560 -3.3869524904
H -2.7014635045 -9.4404414437 -0.2392379499
H -2.0687587471 -7.6592160693 1.3552630855
N -1.9593877466 -0.4519805154 -0.1131795299
C -2.3842048738 -0.7207714165 -1.3334010743
N -3.6454585724 -1.0428331645 -1.6228726970
C -4.7755336341 -1.0474281941 -0.6576915850
C -4.2010140509 -0.8408417223 0.7184534172
C -2.9082344384 -0.5695437334 0.9276097910
H -5.4502363503 -0.2184324282 -0.9172355811
H -3.8567813007 -1.3220794749 -2.5755687696
H -2.5008239969 -0.4183671050 1.9183534450
H -4.8857148105 -0.9122965807 1.5557428606
N -0.1423593309 -0.3929419645 -2.0325514760
C -1.3620137600 -0.6014520088 -2.4267571793
S -1.9597867857 -0.6644735951 -4.0586297860
C -0.4099464793 -0.8107695464 -5.1139272962
C 0.8145681361 -1.0770437515 -4.2457277019
C 0.9128853549 -0.1502105799 -3.0317543550
H -0.3299460877 0.1597944774 -5.6093687064
H 0.8129139501 -2.1228228292 -3.9247541645
H 1.7016823090 -0.9301896872 -4.8703874345
H 0.8488178432 0.9076218904 -3.3272564259
H 1.8710449508 -0.2898507201 -2.5278792794
C -0.6822902736 -1.8892587582 -6.1904013359
O -0.7912011831 -3.1205387433 -5.4948588415
C 0.4050982689 -1.8685825033 -7.2548887701
C 1.5129794487 -2.7229309508 -7.1795457470
C 2.5041664175 -2.6912064632 -8.1595262088
C 2.3910563921 -1.7913848822 -9.2217753107
Cl 3.6291991228 -1.7434172582 -10.4468131391
C 1.2897640482 -0.9359407104 -9.3177670997
C 0.3025445923 -0.9831654958 -8.3364694888
H -1.6401041059 -1.6346421871 -6.6727736840
H -0.9223064901 -3.8251393703 -6.1511746657
H 1.5934169418 -3.4336567030 -6.3624281190
H 3.3537778518 -3.3635833772 -8.1084727114
H 1.2021652332 -0.2573769779 -10.1592971223
H -0.5654493071 -0.3337503664 -8.4315792491
C -5.6243019720 -2.3371541691 -0.8257464461
O -4.7729680734 -3.4440893987 -0.5276801057
C -6.8888875778 -2.2988395662 0.0117255185
C -6.9297341161 -2.8492257674 1.3001838053
C -8.0952308220 -2.7871948481 2.0627258796
C -9.2292877923 -2.1635302057 1.5370939009
Cl -10.6856279483 -2.0804260973 2.4874436310
C -9.2091506691 -1.6152787504 0.2515521726
C -8.0417877679 -1.6914513635 -0.5039664581
H -5.9120297787 -2.3784272450 -1.8894516844
H -5.2910813618 -4.2616096589 -0.6225046887
H -6.0549232360 -3.3477352555 1.7075565645
H -8.1307414452 -3.2242869449 3.0547731760
H -10.1015366353 -1.1510875503 -0.1538596022
H -8.0420103801 -1.2843084603 -1.5130882399
