154
# extracted from Terachem optimization
Cr -0.1303829618 -0.4603165567 -0.4238510847
O -0.2985988639 2.0235765280 -0.4176088005
C 1.0035030583 2.6288843372 -0.2712304080
C 1.1113328952 3.3798467128 1.0414109398
C 0.0246065116 4.0022957454 1.5319245711
C -1.2336786254 3.8528446889 0.7932829195
C -1.3552946467 2.8687912888 -0.1073364854
H 2.0679488226 3.4212499290 1.5477170132
H -2.2748652556 2.5867697330 -0.6050542424
H -2.0795419460 4.4955573065 0.9977703899
H 1.1291072768 3.3227488686 -1.1233396331
N 1.8137462535 0.3023810638 -0.3594658139
C 2.0902610878 1.5699122627 -0.3705927735
C 3.4484178820 2.0951733966 -0.4684069267
C 4.4669947666 1.3114034886 -0.8859996382
C 4.1801328619 -0.1502258613 -1.1178156091
C 2.9808503158 -0.6104340703 -0.2947455971
H 4.0303770532 -0.3091439421 -2.1944328523
H 5.0339745605 -0.7736094044 -0.8445785267
H 3.6103964078 3.1527354589 -0.2972424019
H 3.2601116165 -0.6811668243 0.7659188014
H 2.6666288417 -1.6078671542 -0.6046407788
C 5.8619001583 1.8946882966 -1.1444463104
N 5.8279025178 3.3428635374 -0.9193485154
N 6.8104026425 1.2268930800 -0.2549833225
C 6.3645487195 1.5431797592 -2.5996541126
O 6.5766192604 0.1648583907 -2.7638954488
O 5.3347094499 1.9470209185 -3.4693483754
N 7.6329274063 2.2155366719 -2.8221817388
H 6.7837675593 3.6934046293 -0.8956770834
H 5.3573183127 3.8068454921 -1.6972744627
H 7.7409954867 1.5981634689 -0.4582582430
H 6.5940642606 1.4480646824 0.7155587260
H 7.0028082783 -0.1383070335 -1.9385548923
H 5.6214290385 1.7353632096 -4.3746802342
H 8.1787528072 1.6985569216 -3.5075848694
H 7.5038920958 3.1692928302 -3.1494402767
C 0.0474798123 4.7264141997 2.8843028440
N -1.0195452739 4.1491755289 3.7196340972
N 1.3563261889 4.5503724812 3.5091278479
C -0.1019929662 6.2823780061 2.6877250772
O -0.0390545044 6.8082783397 4.0097546491
O 0.9364809860 6.7718757294 1.8897915052
N -1.3590048359 6.6407121296 2.0574873672
H -1.0289128989 4.6578481908 4.6051377810
H -1.9249044943 4.3353909274 3.2875874812
H 1.3825938561 5.1198992481 4.3540048382
H 1.4622919493 3.5782900039 3.7949232042
H 0.2331469872 7.7383653162 3.9213651682
H 1.7310629740 6.2633056593 2.1460036642
H -1.8978983239 7.2288781903 2.6865740549
H -1.1734703308 7.1615342462 1.2035137396
O -0.0664284602 -2.8780812431 0.1001887873
C 0.1048103706 -3.0750504347 1.5195504417
C 1.5394368757 -3.4363955506 1.8479946943
C 2.2370282601 -4.1906728167 0.9798892142
C 1.5748802277 -4.5648476412 -0.2760536212
C 0.4904158131 -3.8858255749 -0.6709772920
H 1.9633466611 -3.1020889663 2.7875477184
H -0.0246765955 -4.0002891379 -1.6174145863
H 1.9693250487 -5.3656163770 -0.8880276179
H -0.5747577266 -3.8960206849 1.8109459615
N -0.4259281384 -0.6811849668 1.6584005777
C -0.3191762271 -1.8226651144 2.2650341781
C -0.5618834886 -2.0099375848 3.6906369229
C -1.2413613221 -1.0844311032 4.4036734839
C -1.6310884434 0.1915983930 3.7015329512
C -0.6970503726 0.4846722603 2.5323389145
H -2.6799960352 0.1048308403 3.3863603263
H -1.5949050113 1.0514897119 4.3727977250
H -0.2736448513 -2.9507885601 4.1454524154
H 0.2771015623 0.8246887305 2.9106978865
H -1.0939952343 1.2943826642 1.9225551662
C -1.6333987179 -1.3402827286 5.8632054433
N -1.2531669575 -2.7078236663 6.2313604378
N -0.9601395161 -0.3465148420 6.6996726602
C -3.1720978439 -1.0768992257 6.1012902407
O -3.4923018007 0.2828695840 5.9752609859
O -3.8472920629 -1.8009994528 5.0994367686
N -3.5005179918 -1.4868678266 7.4560142210
H -1.3657638625 -2.8165175559 7.2377199774
H -1.8837905947 -3.3768265798 5.7875427038
H -1.2310991319 -0.5212444796 7.6697875769
H 0.0496372475 -0.4641941784 6.6359403875
H -2.7371126799 0.7670469843 6.3656875145
H -4.7989281533 -1.6354593446 5.2159920151
H -4.2894837501 -0.9419430695 7.7957880666
H -3.7300761459 -2.4758734022 7.5079642643
C 3.7055251109 -4.5623498437 1.2216488232
N 4.4754177851 -4.1542189156 0.0337453720
N 4.1899272073 -3.8811352840 2.4199015880
C 3.8464637764 -6.0981981623 1.5482984517
O 5.2448880987 -6.2801178682 1.7529246487
O 3.1138472726 -6.4168563691 2.6946198144
N 3.3734155039 -6.9403583278 0.4664053235
H 5.4482586157 -4.4237790079 0.1875594961
H 4.1676265260 -4.6985643838 -0.7727476175
H 5.1304581062 -4.2209056542 2.6175963358
H 4.2577036247 -2.8815955831 2.2361407621
H 5.3392576950 -7.0856954742 2.2906426111
H 3.2109426682 -5.6516468166 3.2954362256
H 4.1491520358 -7.4798038354 0.0928156269
H 2.6698493678 -7.5846672029 0.8200372181
O -2.2311400122 -0.7834295582 -0.7866094105
C -2.6462113632 -0.8176532935 -2.1797028656
C -3.5012439546 0.3887825847 -2.4926230526
C -4.3630567155 0.8212570681 -1.5543107885
C -4.3703235014 0.1099566329 -0.2691652198
C -3.3141527974 -0.6309542494 0.0843080465
H -3.4156744304 0.8653324979 -3.4618656626
H -3.1591847878 -1.1302538133 1.0307070714
H -5.2199432268 0.1967325658 0.3963825226
H -3.2281448362 -1.7478553387 -2.3021477806
N -0.2424384540 -0.7273125394 -2.5120651636
C -1.4115503327 -0.8995779876 -3.0471127210
C -1.6335796100 -1.1870565611 -4.4561176871
C -0.6195538811 -1.6453796797 -5.2230576218
C 0.7528124284 -1.7188600603 -4.6001549123
C 0.8946070374 -0.7163601534 -3.4561785743
H 0.9350085422 -2.7489169315 -4.2654446865
H 1.5220178436 -1.5058417927 -5.3455611178
H -2.6395145050 -1.1231400693 -4.8544424176
H 0.9688266767 0.3062118082 -3.8544498228
H 1.8036970264 -0.9105154277 -2.8872811969
C -0.8574484308 -2.1009464220 -6.6673117869
N -2.2845323951 -1.9691821897 -6.9808481060
N -0.0244040237 -1.2869695601 -7.5485351527
C -0.3484508832 -3.5807764221 -6.8817240779
O 1.0441976933 -3.6840861583 -6.7306035278
O -0.9678473396 -4.3414713583 -5.8740948952
N -0.6764639527 -3.9887732466 -8.2350637365
H -2.4135434922 -2.0426575421 -7.9880569345
H -2.8096925425 -2.7322689752 -6.5522108325
H -0.1532371296 -1.6280111211 -8.5034496339
H -0.3269462041 -0.3146218242 -7.5202789503
H 1.4202964054 -2.9211271902 -7.2107589519
H -0.6701887668 -5.2617706219 -5.9803276907
H -0.0298067960 -4.7111250457 -8.5430537906
H -1.6282625215 -4.3378654839 -8.3093352358
C -5.2208790248 2.0773876276 -1.7504621025
N -4.9705032447 2.9646279358 -0.6016894272
N -4.8527171020 2.7246744897 -3.0062505072
C -6.7449739181 1.7104541029 -1.9175820565
O -7.3812418319 2.9781554610 -2.0478539164
O -6.9376730227 0.9226985353 -3.0546816519
N -7.2698819524 0.9807835826 -0.7781406388
H -5.5476331552 3.7981327470 -0.7221469663
H -5.3027843867 2.5207746993 0.2553396698
H -5.4906922955 3.5050795743 -3.1597929812
H -3.9134090752 3.1115380530 -2.9305646777
H -8.2311913719 2.8155669677 -2.4929075575
H -6.3090303943 1.2606921483 -3.7232463724
H -7.9726840125 1.5449804894 -0.3084093531
H -7.7097548990 0.1230740705 -1.1040913108
