166
# extracted from Terachem optimization
Cr 0.1722811938 0.0422066910 0.1281760634
N 0.4035860982 2.0465448167 -0.0633960579
C 1.6739361724 2.4158299166 0.0986947996
C 1.8714357900 3.8931251402 -0.1200065975
C 0.5880208133 4.2795108400 -0.9009432910
C -0.4222060604 3.2002730179 -0.4465320846
H -1.0206976281 3.5166092221 0.4215021178
H -1.1156433698 2.9438377378 -1.2511251099
H 0.7738565265 4.0821675105 -1.9617668538
H 2.7960263180 4.1215016395 -0.6563955674
H 1.9224297319 4.4100580764 0.8502458951
N 2.1550206372 0.1320773722 0.4152597938
C 2.6246955366 1.4131145197 0.4445302532
C 3.9814054445 1.7292204417 0.8015500408
C 4.9293715677 0.7635893385 0.9513760374
C 4.4969156925 -0.6723609042 0.7385021853
C 3.0079436232 -0.8672659395 1.0574292692
H 4.7042884310 -0.9605950421 -0.3020425996
H 5.0885852435 -1.3651848040 1.3396332201
H 4.2521897428 2.7693980850 0.9392609545
H 2.8675769595 -0.8287664843 2.1535881831
H 2.6831382992 -1.8590889107 0.7274648240
C 6.3754963004 1.1217220479 1.3089321655
N 6.5090062999 2.5894189710 1.3278931394
C 6.6655244935 0.6519160838 2.7535380674
C 7.4316030632 0.4858480479 0.3236365416
N 7.5241378411 -0.9729724186 0.4848076906
C 7.1549857622 0.7989933726 -1.1502894128
H 7.3849283817 2.8440344025 1.7811753803
H 6.5598851212 2.9601289842 0.3802328967
H 6.4720086861 -0.4147063252 2.8925052660
H 7.7170404372 0.8406106975 3.0063317532
H 6.0423775170 1.2152072455 3.4540894161
H 8.3784331339 0.9887106393 0.5943418253
H 8.0125040909 -1.1997974352 1.3490414019
H 8.0962620692 -1.3601173391 -0.2643751788
H 7.0646316033 1.8743036490 -1.3336433654
H 7.9826991669 0.4416943537 -1.7737121999
H 6.2377598150 0.3122985663 -1.4981074595
C 0.1469855735 5.7747744410 -0.7817338809
N -0.0776265025 6.2440390138 0.5897148879
C 1.2754610268 6.6526808131 -1.3618830971
C -1.1648142337 6.0673844157 -1.5996504643
N -1.1297729904 5.3648230810 -2.8974976758
C -2.4808502116 5.7207867810 -0.8924616080
H -0.6352915049 5.5957409010 1.1398320386
H 0.7986287445 6.3974261196 1.0829119226
H 1.4789211065 6.4144144014 -2.4115485403
H 1.0011340374 7.7091807510 -1.2916400460
H 2.2130666584 6.5143963891 -0.8112085717
H -1.1734463613 7.1626855353 -1.7182044834
H -1.9939201528 5.5667708910 -3.4000548875
H -0.3896904173 5.7529955292 -3.4818343596
H -2.5361821592 6.2084392958 0.0833151258
H -3.3228625612 6.0932400931 -1.4882174926
H -2.6208905190 4.6409362891 -0.7725287231
N -0.1042777333 -2.0278095172 0.4189824707
C -0.2931427307 -2.3473351619 1.6566932289
C -0.5393824835 -3.8132109547 1.8825377401
C -0.8889961681 -4.2931486889 0.4508020400
C -0.2023722192 -3.2283772454 -0.4352099662
H 0.8184134167 -3.4963307647 -0.7392043315
H -0.7737626533 -3.0111025353 -1.3386381251
H -1.9641855305 -4.1503539475 0.3067800231
H -1.3235305825 -3.9991250844 2.6216192821
H 0.3831254208 -4.2794960210 2.2618897373
N -0.1131377074 -0.0579035314 2.1681922236
C -0.2257941802 -1.2646561808 2.6659997522
C -0.2499024916 -1.5592406731 4.0793221382
C -0.4599476442 -0.5705162380 4.9874625175
C -0.6732814756 0.8267201190 4.4410870586
C 0.0878106193 1.0340457020 3.1311364031
H -1.7523595591 0.9836324431 4.2954556242
H -0.3814724876 1.5922853851 5.1605803468
H -0.1176473129 -2.5814578346 4.4126541503
H 1.1722990024 1.0985908701 3.3163794054
H -0.2096558095 1.9639500541 2.6426670100
C -0.4927720710 -0.8735376332 6.4881417008
N -0.3373043434 -2.3239332542 6.6807733020
C 0.7468084689 -0.2090228317 7.1343600131
C -1.8072532382 -0.3473438172 7.1867456538
N -1.8458793212 1.1200127968 7.2326690661
C -3.0915514497 -0.8525577826 6.5189290143
H 0.0120249924 -2.5125933368 7.6180157497
H -1.2331979496 -2.8026050271 6.6070845501
H 0.7851710280 0.8662291359 6.9476672877
H 0.7251070544 -0.3636517681 8.2204682181
H 1.6606382436 -0.6662336737 6.7436416597
H -1.7589613094 -0.7952968238 8.1952690070
H -1.2272879627 1.4691385969 7.9621302311
H -2.7810666959 1.4301602677 7.4921493054
H -3.1058654852 -1.9419387984 6.4126867693
H -3.9619760054 -0.5843125178 7.1278347491
H -3.2274250977 -0.4082554674 5.5267099226
C -0.5860083202 -5.7945187542 0.1374447235
N 0.8120014902 -6.1963728909 0.2987014482
C -1.4041109425 -6.6586457834 1.1197385534
C -1.0232554468 -6.1718527386 -1.3281570216
N -2.3016893067 -5.5154860049 -1.6628795292
C -0.0048787519 -5.8425818336 -2.4260441739
H 1.4680647354 -5.5668326174 -0.1550003527
H 1.0805658199 -6.2912274983 1.2749002140
H -2.4800113885 -6.4751702555 1.0271461241
H -1.2140075357 -7.7186422495 0.9297951774
H -1.1284180755 -6.4534067606 2.1609550250
H -1.1059760098 -7.2700134257 -1.3155171478
H -2.5421449898 -5.7418751210 -2.6274717637
H -3.0549226125 -5.9148351141 -1.1033327757
H 0.9567495321 -6.3179649685 -2.2202817743
H -0.3622226671 -6.2413201725 -3.3829574488
H 0.1399991159 -4.7652025588 -2.5590075027
N -1.8376911492 0.2396322432 -0.4987701922
C -2.0335125641 0.1753781118 -1.7708170156
C -3.4615257789 0.3799486305 -2.1883808072
C -4.2149310418 0.2213634581 -0.8420057252
C -3.1092683502 0.5114725171 0.1998056277
H -3.0771304293 1.5599264766 0.5236455395
H -3.1972766344 -0.1125457125 1.0913406521
H -4.4727300760 -0.8350597261 -0.7244836268
H -3.7774316503 -0.3258498403 -2.9618978570
H -3.5681776038 1.3909926847 -2.6106073982
N 0.2662509813 -0.2242484746 -1.9625388173
C -0.8413728384 -0.0410700061 -2.6281229593
C -0.9340834054 0.0008049366 -4.0695983488
C 0.0871382885 -0.4621915634 -4.8349060923
C 1.2838798049 -1.0330503887 -4.1018310319
C 1.4971050513 -0.3312630656 -2.7595700063
H 1.1210349672 -2.1119115065 -3.9586697947
H 2.1927984476 -0.9728915973 -4.7010196618
H -1.8296441354 0.3948067416 -4.5345090199
H 1.8620244398 0.6964287554 -2.9136507342
H 2.2477983104 -0.8459806449 -2.1576894401
C 0.0143247371 -0.4189413938 -6.3615011815
N -1.2999957566 0.1126401662 -6.7575627502
C 1.0655299633 0.6021878062 -6.8587190957
C 0.2752088089 -1.8258057106 -7.0275739385
N 1.6729064248 -2.2506142074 -6.8728828172
C -0.6354384981 -2.9330534991 -6.4844446982
H -1.2552560153 0.4694153545 -7.7099330039
H -2.0072970904 -0.6204909178 -6.7594146798
H 2.0733469639 0.3617828425 -6.5135692198
H 1.0774709301 0.6168023542 -7.9558447975
H 0.8031330089 1.6047247049 -6.5084075595
H 0.0053365791 -1.6625106626 -8.0862345127
H 2.2724805158 -1.7416972767 -7.5197051994
H 1.7618998579 -3.2326915704 -7.1289419882
H -1.6943831877 -2.6584269613 -6.5201891957
H -0.5236562673 -3.8400276999 -7.0888124745
H -0.3806169632 -3.1882378688 -5.4496812804
C -5.5472196008 1.0336210879 -0.7207013601
N -5.4074908754 2.4808307034 -0.8892863468
C -6.4948715856 0.5564404822 -1.8412514572
C -6.2564912758 0.7791552178 0.6599768378
N -6.1560490771 -0.6463723267 1.0289582129
C -5.7465748490 1.6226450246 1.8346337389
H -4.6760427498 2.8888789703 -0.3139971610
H -5.2405764837 2.7449217600 -1.8569319783
H -6.6986141455 -0.5176769282 -1.7746059916
H -7.4443072568 1.0957303436 -1.7816075674
H -6.0698792672 0.7449147791 -2.8344564606
H -7.2985726334 1.0958005298 0.4955865049
H -6.5783073457 -0.7763876796 1.9477206766
H -6.7224627571 -1.2110122601 0.3963215150
H -5.8004155028 2.6884361103 1.6011742701
H -6.3883463588 1.4522316101 2.7070734036
H -4.7248897803 1.3622663418 2.1310274922
