178
# extracted from Terachem optimization
Cr -0.4902027724 -0.2281619604 -0.2372765454
O -0.4626283169 2.3294143279 -0.0136227898
C 0.7440251148 2.7541366659 -0.6681302243
C 1.1110707754 4.2068152539 -0.3457152911
C 1.2742292712 4.4459582013 1.1672285197
C 0.1344063616 3.7455422678 1.8690279774
C -0.6411754107 2.8382345742 1.2758710654
H 2.2189141516 3.9787828265 1.4739466696
H 0.2996461075 4.8243294230 -0.7422083513
H 2.0091507927 4.4834115848 -0.8985333155
H -1.5117001102 2.3765845412 1.7257681064
H -0.0774916894 4.0223434857 2.8953493361
H 0.5285017818 2.6852228867 -1.7413859650
N 1.5269945401 0.4780220737 -0.1269164736
C 1.8294597880 1.7196889597 -0.3827566250
O 3.0524568907 2.2074749432 -0.4211319966
C 4.2260939009 1.3110165341 -0.5737244933
C 3.8917739793 0.0159677803 0.0991009527
C 2.6159443699 -0.3560313244 0.2515652276
H 5.0211327139 1.8317516488 -0.0441740550
H 2.3320601969 -1.2934014046 0.7134816062
H 4.7106890787 -0.5954191947 0.4574421122
C 4.5705616466 1.2446293102 -2.1028935711
O 3.4330910134 0.7079244088 -2.7958877535
C 4.7207808663 2.6762072173 -2.6296256322
C 5.8685186498 0.3580583717 -2.3603490133
N 6.7578271013 0.5463678738 -1.1913770801
C 5.5248497165 -1.1442524031 -2.4460827397
C 6.5604098924 0.7346489436 -3.6882783671
H 3.3438220061 -0.2219974482 -2.5307354795
H 5.6010602930 3.1671311851 -2.2018220098
H 4.8187845122 2.6687678548 -3.7157743105
H 3.8430165898 3.2710938775 -2.3719637173
H 7.5084996583 -0.1427837057 -1.2266070145
H 7.2254059058 1.4519071067 -1.2520796233
H 4.9368718598 -1.3586833827 -3.3438723732
H 6.4514686150 -1.7218150937 -2.5351019374
H 4.9923146953 -1.5212575819 -1.5688840280
H 5.8757311049 0.6667435099 -4.5411555198
H 6.9767739976 1.7460459549 -3.6637971809
H 7.3894808310 0.0424127856 -3.8712421163
C 1.3884056319 5.9889715939 1.4947973474
O 2.1652782743 6.6014532966 0.4563528457
C 0.0165118772 6.6668394306 1.3862064574
C 2.0754689713 6.2813413657 2.8978738826
N 1.2318520954 5.6959782884 3.9682622069
C 3.4590329257 5.6082432409 3.0095200611
C 2.2655791674 7.8025590260 3.0919324234
H 3.0896574959 6.3223299055 0.5537602511
H -0.6642033295 6.3348570792 2.1741307218
H 0.1232815712 7.7517208156 1.4399494263
H -0.4527175142 6.4405464591 0.4240896309
H 1.7688078468 5.6822748851 4.8357280106
H 0.4469818822 6.3204251211 4.1553396728
H 4.1379032944 5.9064320389 2.2019083392
H 3.9452511261 5.9201948069 3.9407598635
H 3.3921766218 4.5165235233 3.0280289278
H 2.8194321563 8.2570918041 2.2657509082
H 1.3049018016 8.3205824794 3.1729610663
H 2.8168731006 7.9878335435 4.0203737559
O -0.4047722316 -2.7033287692 -0.1715872393
C -1.0703649787 -3.1042340154 1.0444547803
C -0.8457959264 -4.5781355645 1.3863968075
C 0.6511578544 -4.9276360876 1.4812156656
C 1.3308213463 -4.3516275343 0.2606306598
C 0.7894507002 -3.3699837679 -0.4597754839
H 1.0450797334 -4.4263425677 2.3764142734
H -1.3180481082 -5.1526123391 0.5842540720
H -1.3702861334 -4.8241533198 2.3105079420
H 1.2173944132 -2.9650120333 -1.3699388167
H 2.2694602173 -4.7876534431 -0.0672876485
H -2.1379076770 -2.9450973548 0.8490019524
N -0.3392612681 -0.8871881717 1.8212312658
C -0.6863068528 -2.1049289430 2.1291404814
O -0.7369882062 -2.5962312749 3.3490012845
C -0.8119669123 -1.6951890502 4.5261754488
C -0.0470552100 -0.4545273983 4.1857490721
C 0.1163284480 -0.0902451871 2.9085323202
H -0.3181046081 -2.2576811778 5.3152642263
H 0.6415673916 0.8120361670 2.6233707208
H 0.3701050147 0.1249158917 5.0003285121
C -2.3289058296 -1.5092727729 4.8805735154
O -2.9660044432 -0.8462846491 3.7791711641
C -2.9864832481 -2.8933847811 4.9510451953
C -2.5080821239 -0.6783674603 6.2266920151
N -1.3755767795 -1.0383655907 7.1095593868
C -2.4308681819 0.8453295074 5.9826029845
C -3.8777573252 -0.9548037491 6.8829042437
H -2.6562240513 0.0736885927 3.7874420995
H -2.5874432700 -3.4863440081 5.7806659947
H -4.0646187859 -2.7936767065 5.0810584729
H -2.8091645824 -3.4440063417 4.0263613120
H -1.3654678704 -0.4141247337 7.9159018188
H -1.5219466673 -1.9711619792 7.4979634871
H -3.2974027717 1.2016020041 5.4155589987
H -2.4625411100 1.3616500282 6.9481378964
H -1.5143183696 1.1635642843 5.4789304557
H -4.7065783437 -0.7669405709 6.1911224810
H -3.9605098169 -1.9835943495 7.2455602490
H -4.0064118902 -0.2913206568 7.7452442790
C 0.8754069934 -6.4678539699 1.7285073128
O 0.0498574052 -6.8190461542 2.8486263623
C 0.3234384084 -7.2975997676 0.5609924556
C 2.3827081294 -6.8447781997 2.0486478504
N 3.1602562157 -6.7604490669 0.7892806482
C 3.0324274179 -5.8534565206 3.0355933213
C 2.4616945237 -8.2588400365 2.6710829013
H 0.4482553739 -6.4472833092 3.6522195005
H 0.7074393901 -6.9441541267 -0.3999471852
H 0.5712968411 -8.3553854878 0.6734881715
H -0.7674205805 -7.2354331591 0.5427308682
H 4.1488029083 -6.8872511608 1.0094727781
H 2.9173575860 -7.5489567767 0.1896620139
H 2.4410934965 -5.7278963076 3.9509444286
H 4.0114499466 -6.2325498883 3.3488362303
H 3.1870363448 -4.8699325610 2.5825642179
H 1.9364063930 -8.3291134332 3.6273566548
H 2.0412847385 -9.0233829383 2.0109763186
H 3.5137113761 -8.5140113166 2.8421568464
O -2.5635763185 -0.6010844922 -0.4024522301
C -3.0765398053 -0.6637464602 -1.7744072187
C -4.4262262020 0.0362329430 -1.9523081219
C -4.4715800720 1.3872853192 -1.2040238266
C -4.1880013290 1.0666064739 0.2432680104
C -3.3319312082 0.1032712972 0.5663178202
H -3.6507518305 2.0062464877 -1.5969861352
H -5.2007947136 -0.6271963780 -1.5599441982
H -4.6121606757 0.1648493506 -3.0202053319
H -3.1243462899 -0.2882246006 1.5543032587
H -4.7361265047 1.5899809894 1.0204724412
H -3.1867617447 -1.7326632469 -1.9974964921
N -0.7666955426 0.0225328566 -2.3070834052
C -1.9864035650 -0.1837507666 -2.7100067315
O -2.4107868835 -0.0502431676 -3.9483979488
C -1.4625387889 -0.1745327414 -5.0832402898
C -0.1316743491 0.3334861226 -4.6180124330
C 0.1653632152 0.4000821263 -3.3154189578
H -1.8806731835 0.4832869499 -5.8430560460
H 1.1313310108 0.7380217704 -2.9593095234
H 0.5747465513 0.6540986858 -5.3737650913
C -1.5533832058 -1.6686978801 -5.5661889062
O -1.2694410893 -2.5149642654 -4.4464715239
C -3.0184476777 -1.9588981799 -5.9201583045
C -0.5728022392 -1.9484355786 -6.7829428361
N -0.5356522670 -0.7067785845 -7.5881980730
C 0.8674596632 -2.2366965860 -6.3066218273
C -1.0271151799 -3.1731016100 -7.6054799448
H -0.3131899967 -2.4888316243 -4.2853564951
H -3.3364704005 -1.4028559953 -6.8082922888
H -3.1541920026 -3.0246806706 -6.1075871684
H -3.6732277812 -1.6773519009 -5.0937360652
H 0.1957948537 -0.7841351733 -8.2948455924
H -1.4045206854 -0.6106889832 -8.1153307206
H 0.9268112480 -3.2010046731 -5.7904020875
H 1.5258145075 -2.3141667315 -7.1788967870
H 1.2771392877 -1.4563937387 -5.6601990983
H -1.1455947036 -4.0633956242 -6.9779526961
H -1.9736470410 -2.9917496787 -8.1226833557
H -0.2739783302 -3.3985053434 -8.3687769263
C -5.7979908361 2.1747869652 -1.4879025090
O -5.8901973976 2.3174244313 -2.9122781486
C -7.0281008430 1.3404802125 -1.1049799798
C -5.8314503059 3.6089494404 -0.8037440540
N -6.0589124103 3.4229721095 0.6499931627
C -4.4867358131 4.3472772885 -0.9543451547
C -6.9360550453 4.4837159900 -1.4388566502
H -5.2551564297 2.9929354208 -3.2002996420
H -6.9643438556 0.9680167939 -0.0785089400
H -7.9463539681 1.9227163477 -1.2092823462
H -7.1239327829 0.4851253769 -1.7785546247
H -5.9506194749 4.3260460140 1.1131985025
H -7.0315931096 3.1590137332 0.8072929399
H -4.1671891461 4.4159625167 -2.0016868561
H -4.5853539371 5.3775195813 -0.5939023877
H -3.6889591800 3.8695912863 -0.3780476393
H -6.7694816000 4.6697835721 -2.5033631536
H -7.9272074778 4.0318505571 -1.3376455532
H -6.9614217110 5.4522661148 -0.9267575108
