136
# extracted from Terachem optimization
Cr 0.2192801776 -0.0986979570 0.1798816665
O 1.0768962106 1.7838692505 0.5945820130
C 2.4392815542 1.7934312454 1.1443985689
S 2.9818481133 3.5394104553 1.1866146659
C 1.8608230616 3.9103204419 -0.2321698340
C 0.6247575375 3.0872235604 0.1094027530
H 0.0314985708 3.5582205659 0.8973212476
H 0.0263571758 2.8947200619 -0.7776432813
H 2.3028051105 3.4886670957 -1.1409545984
H 2.3713781191 1.4139813828 2.1675783482
O 2.6378429198 -0.3708482136 0.1584319196
C 3.3545022042 0.8901927642 0.3162777052
C 4.7006815499 0.6540535084 0.9950649777
C 5.5835081574 -0.2935689757 0.1420717694
C 4.7430645619 -1.4616899286 -0.3033375981
C 3.4125459790 -1.4598455573 -0.2466980087
H 6.3559265163 -0.6859952712 0.8150610464
H 5.2253280487 1.5996147553 1.1445208038
H 4.5236277103 0.1972483998 1.9775513652
H 2.7770471600 -2.2969213763 -0.5129974784
H 5.2332699443 -2.3587707014 -0.6696913315
H 3.5048085852 1.3088139228 -0.6874346879
C 6.3044911452 0.4239422085 -1.0021860954
C 5.9116886067 0.3271076887 -2.2779240816
C 7.5261142977 1.2715236228 -0.6427682298
O 7.1743779129 2.3369112516 0.2578733522
C 8.6494205136 0.4853141464 0.0303242235
H 6.4442955727 0.8443893332 -3.0721558661
H 5.0773331804 -0.2972102190 -2.5857391588
H 7.9178111634 1.6947749942 -1.5778220964
H 6.7691697212 3.0472736887 -0.2640980114
H 8.9366228364 -0.3819827197 -0.5727142891
H 9.5221924420 1.1325489574 0.1522966413
H 8.3544328552 0.1415350380 1.0271989250
C 1.5861942448 5.3808426143 -0.4712115652
C 2.1407775414 6.3643482759 0.2402948594
C 0.6327448046 5.6935580798 -1.6340019066
O 0.6462593794 4.6503440454 -2.6250902512
C -0.8200456505 5.8765840187 -1.1902792391
H 1.9505100107 7.4064721520 -0.0038699988
H 2.7938224977 6.1911547580 1.0905849465
H 0.9618529498 6.6348285562 -2.0917161772
H 1.3731694541 4.8259072544 -3.2426214988
H -0.8967762840 6.6797174569 -0.4521687860
H -1.4367071021 6.1308211135 -2.0572434310
H -1.2269514418 4.9629442459 -0.7420496875
O -0.2499819236 -2.1385639497 0.1777676272
C 0.0753153375 -2.8159129592 1.4333031746
S -0.7167278172 -4.4674367223 1.3930694116
C -1.8405673725 -3.9091780975 0.0315319413
C -0.9255808747 -3.0051802272 -0.7874317725
H -0.1750399848 -3.5757494428 -1.3403955176
H -1.4884069178 -2.3490621745 -1.4496005761
H -2.6212103282 -3.2804595697 0.4700300519
H 1.1612785147 -2.9383632580 1.4843623533
O -0.0536967451 -0.5482703062 2.1948722592
C -0.4194339367 -1.9299730178 2.5739132522
C 0.2061302497 -2.2761442240 3.9135277811
C -0.2945986699 -1.3218352398 5.0290229918
C -0.2949710475 0.0907235809 4.5070860734
C -0.1679114936 0.4090766349 3.2210817198
H 0.4431936628 -1.3810992286 5.8385268192
H -0.0332858593 -3.3083820387 4.1769022898
H 1.2969452671 -2.1937820563 3.8241898261
H -0.1362062942 1.4131254942 2.8182689712
H -0.4083344429 0.9100571607 5.2112466122
H -1.5131759421 -1.9517943604 2.6335643903
C -1.6426039314 -1.7521708656 5.6111470355
C -2.8048919589 -1.2087014936 5.2347009696
C -1.6034725924 -2.8249647857 6.6906096632
O -0.6801460515 -3.8300384855 6.2584516483
C -1.1997758176 -2.2571354667 8.0573412890
H -3.7486340016 -1.5507204320 5.6512828757
H -2.8564712459 -0.3795515804 4.5346258971
H -2.6124329168 -3.2548348451 6.7760072384
H -0.5716509982 -4.4705090080 6.9796014029
H -1.9165215899 -1.5020944938 8.3947784062
H -1.1822131168 -3.0572991466 8.8074500904
H -0.2018431538 -1.8061280492 8.0259604626
C -2.5055607666 -5.0245099847 -0.7491398345
C -2.2482047561 -6.3207863541 -0.5623738241
C -3.5528904777 -4.5610511027 -1.7819893619
O -3.9523043012 -3.2059094276 -1.5774310537
C -3.0317076439 -4.6590589945 -3.2162395973
H -2.7873753065 -7.0820281358 -1.1206464864
H -1.5008954986 -6.6863531979 0.1354913875
H -4.4269850502 -5.2203918266 -1.6893826282
H -4.5245329572 -3.1380872377 -0.7868510856
H -2.7352678132 -5.6845358914 -3.4531054086
H -3.8164737059 -4.3487065275 -3.9125457162
H -2.1627323754 -4.0075083915 -3.3668517463
O -2.0234464149 0.6361635670 -0.1152689715
C -2.1813703160 1.2807645957 -1.3945115174
S -3.9563834863 1.1657375015 -1.8824463267
C -4.2558614541 -0.0911073020 -0.5572827972
C -3.2905351718 0.3624338792 0.5360477037
H -3.6453968572 1.2683468680 1.0388998884
H -3.0964486186 -0.4245673405 1.2673929477
H -3.9110920628 -1.0559421217 -0.9388965383
H -1.9245094080 2.3387611185 -1.2932259787
O 0.0608892163 0.3973623779 -1.8415348782
C -1.2905852316 0.6053646131 -2.4382884957
C -1.1399095849 1.4375477241 -3.7031348416
C -0.3155687668 0.6615397309 -4.7598729878
C 0.9143558627 0.1094836727 -4.0874141415
C 1.0630448860 0.0320377993 -2.7676626152
H 0.0244054464 1.3986558550 -5.4984886658
H -2.1258922530 1.6731439258 -4.1101839392
H -0.6337651491 2.3777433457 -3.4483592020
H 1.9531442919 -0.2985554625 -2.2473587172
H 1.7469685696 -0.2266460084 -4.6990323858
H -1.6712341408 -0.3956358111 -2.6664018523
C -1.1335807924 -0.3874891061 -5.5186058930
C -0.9353516777 -1.7025741668 -5.3678937287
C -2.2077198331 0.1129202379 -6.4856625576
O -3.2685196628 0.7869673582 -5.7880602667
C -1.6955526476 1.0909687108 -7.5396422346
H -1.5169253308 -2.4274622852 -5.9316988525
H -0.1723681505 -2.1067769172 -4.7083948909
H -2.6142202002 -0.7676576463 -7.0024604818
H -3.7723829179 0.1209546899 -5.2926968739
H -0.8600206160 0.6604026132 -8.1009887847
H -2.5022908539 1.3259231926 -8.2391926446
H -1.3696964587 2.0327316924 -7.0856257172
C -5.7117739955 -0.2147302242 -0.1505748052
C -6.6961790953 0.5194317755 -0.6755073398
C -6.0599544108 -1.2595272770 0.9095357500
O -5.0810258339 -2.3280626629 0.8592939158
C -6.1272031697 -0.6808053292 2.3264270308
H -7.7318313361 0.3549821435 -0.3896880935
H -6.5256475204 1.3122728284 -1.3962439517
H -7.0421781297 -1.6764004791 0.6547011193
H -5.3293599300 -2.9726694528 1.5423265001
H -6.8744208519 0.1160702904 2.3779853200
H -6.4176003239 -1.4568781954 3.0458807907
H -5.1611364036 -0.2701754187 2.6396514384
