88
# extracted from Terachem optimization
Cr 0.2560800860 0.1212728193 -0.0538594125
O 0.4797057519 2.6341250089 -0.0432493760
C 1.8312994628 2.9726455332 -0.3757124528
O 2.1460215978 4.1671602250 0.3225349185
C 0.9143116430 4.6891052015 0.7356545408
C -0.0574216283 3.8129671100 0.5143171886
H -1.1184744389 3.8334446303 0.6956309761
H 1.9006051961 3.1493035345 -1.4614965972
N 2.2803573745 0.6222910984 0.1146090718
C 2.7617318022 1.8403979030 0.0310243921
N 4.0390661658 2.1634630916 0.2395280076
C 5.1220743500 1.1836998782 0.3437556493
C 4.5268842474 -0.1795278946 0.5585829618
C 3.2116086543 -0.3928526450 0.4480272467
H 5.7617659540 1.4631220866 1.1914287932
H 4.3003413172 3.1425476467 0.2019437613
H 2.7743792206 -1.3703200022 0.6199420086
H 5.2032795745 -0.9863984669 0.8128374611
C 6.0722205970 1.2939025424 -0.8783909384
O 6.5130627905 2.5992198310 -0.9111938034
O 7.0261110414 0.3316664010 -0.7321790176
Cl 5.1058236510 0.9762348879 -2.4727482275
H 6.9621662433 2.7983492695 -1.7513956855
H 7.6928462993 0.3806069271 -1.4396334781
C 0.9700394523 6.0747365142 1.3264953657
O 1.7580791308 5.9877341885 2.4538400856
O 1.4225499331 7.0224437774 0.4169351616
Cl -0.7380598925 6.5867151680 1.7257966793
H 1.8336188036 6.8823205951 2.8365981240
H 2.3744135290 6.8591547109 0.2825729180
O 0.2577474695 -2.3712253546 0.7019721875
C -0.6087176329 -2.3466410244 1.8431466212
O -0.3362270571 -3.5066903289 2.6054725575
C 0.3713987470 -4.3472496095 1.7515244109
C 0.7176732905 -3.7027884742 0.6416941185
H 1.2657089942 -3.9988066700 -0.2368857029
H -1.6545116791 -2.3736967756 1.4973176585
N -0.0616550755 0.0336225166 2.0584737568
C -0.3681190818 -1.0913182112 2.6669842094
N -0.5290125237 -1.2262325865 3.9830458914
C -0.5996014358 -0.1059886126 4.9192992931
C -0.0950320405 1.1293301206 4.2294304541
C 0.1395646693 1.1468215093 2.9128832855
H 0.0227110999 -0.3427628676 5.7927465864
H -0.7161535116 -2.1562335211 4.3449591701
H 0.5111112506 2.0324117722 2.4151207513
H 0.0782680981 2.0098946205 4.8360828398
C -2.0250109911 0.0126751540 5.5219229882
O -2.3516769548 -1.2324157472 6.0057007379
O -1.9880238273 1.0293715206 6.4296131107
Cl -3.2740689357 0.4464864930 4.1601592057
H -3.2938014675 -1.2874938310 6.2429301099
H -2.8436477122 1.1349555106 6.8814709647
C 0.6144918088 -5.7530022097 2.2154869558
O 1.4714599671 -6.3209213698 1.2970265107
O 1.0812666455 -5.8055243756 3.5228593913
Cl -1.0007884787 -6.6247335886 2.2597322124
H 1.4970316859 -7.2830693871 1.4504106822
H 2.0462688460 -5.6757886414 3.4802899049
O -1.8234724581 -0.2689769387 -0.2923669861
C -2.2447610419 -0.4963989182 -1.6618863038
O -3.2462696186 0.4618311058 -1.9415334334
C -3.6853508570 0.9035112810 -0.7049920599
C -2.8782120220 0.5072038772 0.2725657360
H -2.8714448253 0.6453985535 1.3409202790
H -2.6686322388 -1.5105084919 -1.7168554930
N 0.1248440065 -0.1366566031 -2.1220015036
C -1.0754117827 -0.3381626080 -2.6137063407
N -1.3618847774 -0.4363597763 -3.9112845152
C -0.3546153463 -0.4777882986 -4.9765808274
C 1.0014199863 -0.2251770981 -4.3820270749
C 1.1796271345 -0.0675582783 -3.0669524444
H -0.6036253955 0.2877819212 -5.7243865296
H -2.3234834436 -0.5835457634 -4.2010589075
H 2.1553776377 0.1133407824 -2.6335048196
H 1.8405837989 -0.1794210652 -5.0654165273
C -0.4751797178 -1.8085857510 -5.7664090066
O -1.7893932886 -1.8834950728 -6.1834607686
O 0.4719952706 -1.7647992146 -6.7496216501
Cl -0.1397094200 -3.2660333642 -4.6342856747
H -1.9942687865 -2.7650305943 -6.5414519810
H 0.4627369865 -2.5758366125 -7.2876306213
C -4.9327495054 1.7283132029 -0.6444107370
O -5.0344322568 2.2039187145 0.6479029995
O -4.8561888543 2.6772068639 -1.6291215260
Cl -6.3889063907 0.6017181033 -0.9843922749
H -5.9658448476 2.3797004703 0.8667949166
H -5.6977049677 3.1638099627 -1.6906344048
