169
# extracted from Terachem optimization
Cr 0.0636984984 -0.2068355288 -0.2004406426
N 0.3336786165 1.8614832802 0.0357260089
C 1.6204581268 2.1685926359 0.1687179885
S 1.9094574846 3.8629750818 0.2178009699
C 0.1958588592 4.1824839859 0.0542121573
C -0.4627607113 2.9731854994 -0.0331499653
H -1.5364671119 2.8874065472 -0.1095169747
N 2.0899151573 -0.1350640222 0.0148533210
C 2.5936938238 1.0795823540 0.2208166309
N 3.8798777377 1.3032606837 0.4878615346
C 4.9728453913 0.2888573247 0.3592708685
C 4.2938995683 -1.0546213116 0.4147344355
C 2.9781535326 -1.2158704186 0.2214904097
H 5.5943513969 0.3905756057 1.2515746453
H 4.1646237278 2.2460286394 0.7229246111
H 2.4996336300 -2.1863532533 0.2414546875
H 4.9201913563 -1.9035026202 0.6558207218
C 5.8921430047 0.6110294170 -0.8838588090
C 5.0781641409 0.6731030551 -2.1881013514
C 6.5045864774 2.0108694601 -0.6335914649
C 7.0669080872 -0.4667325040 -1.0163477001
N 7.4879738526 -0.8311824801 0.3518046239
C 6.6298600595 -1.7663465418 -1.7214616002
N 8.1002879047 0.1161367028 -1.8827577651
H 4.3988945749 1.5342405617 -2.1932496652
H 5.7625895444 0.7917526247 -3.0324905355
H 4.4882837967 -0.2356590499 -2.3514725601
H 7.0923587019 2.0602550686 0.2919996530
H 7.1499492181 2.2922090399 -1.4673419610
H 5.7320656019 2.7874765475 -0.5744575998
H 8.1733065261 -1.5854573196 0.3092862408
H 7.9716204832 -0.0498410790 0.7954643320
H 6.4208991536 -1.5809510727 -2.7768836788
H 7.4488243688 -2.4939671681 -1.6700630211
H 5.7535066971 -2.2256305393 -1.2652774693
H 8.7059404179 0.7519792927 -1.3678963395
H 8.7029714029 -0.6137554745 -2.2588012695
C -0.3225792517 5.6110800387 -0.0610623596
C 0.8134304694 6.6159421587 0.2324313727
C -0.7638648272 5.8156901256 -1.5381509707
C -1.5558833462 5.8585980510 0.9275178604
N -2.6461290861 4.9169228723 0.5524185353
C -1.1760954490 5.5645623792 2.3860638562
N -1.9022927566 7.2716115758 0.8408023424
H 1.6028539901 6.5428856203 -0.5250878297
H 0.4118101968 7.6292363770 0.2080332259
H 1.2645858149 6.4668496675 1.2191154026
H -1.5585101332 5.1240934336 -1.8331586566
H -1.1058672697 6.8436974652 -1.6906701796
H 0.0833214195 5.6579646765 -2.2129936389
H -3.3545043088 4.9456809783 1.2862795129
H -3.1175525904 5.2704338579 -0.2804336434
H -0.3812309201 6.2288466780 2.7299988179
H -2.0440332175 5.7311825022 3.0356541626
H -0.8612208829 4.5258369183 2.5157041669
H -2.4197531354 7.4968245375 -0.0052225186
H -2.4651067651 7.5696185116 1.6339050161
N -0.1453740800 -2.2616240256 -0.1159046999
C -0.3189662641 -2.7062360345 1.1269128019
S -0.5753964988 -4.4032410696 1.2000033162
C -0.4165037648 -4.5299099109 -0.5416816352
C -0.1943128836 -3.2657331005 -1.0465409619
H -0.0216266437 -3.0512693759 -2.0902535315
N -0.2272218819 -0.4675027556 1.8533347995
C -0.2821310454 -1.7409771936 2.2252893205
N -0.2737502937 -2.1530692235 3.4948984545
C -0.3587394419 -1.2692042056 4.6974000194
C -0.1282920093 0.1328598976 4.2013912250
C -0.0902625305 0.4676357563 2.9048072962
H 0.4818178730 -1.5354474614 5.3446390471
H -0.2414390189 -3.1491195395 3.6728654957
H 0.0674508574 1.4908109304 2.5903798307
H 0.0616739523 0.8787956819 4.9615067524
C -1.6784016095 -1.5735051256 5.5133161658
C -2.9203651471 -1.5056732589 4.6072400039
C -1.5476756317 -3.0255033782 6.0374226537
C -1.8350674606 -0.5762390894 6.7508523852
N -0.4802872937 -0.3099197445 7.2778180809
C -2.4522138490 0.7832698748 6.3661891020
N -2.7890605063 -1.1830858268 7.6893159059
H -2.9117829432 -2.3149921823 3.8676366999
H -3.8165494131 -1.6317840482 5.2216925772
H -2.9981130718 -0.5540746807 4.0700827726
H -0.6819365778 -3.1637915092 6.6972788672
H -2.4485898125 -3.3121032375 6.5828008129
H -1.4511272722 -3.7494480714 5.2185766990
H -0.5373057335 0.3778724973 8.0290184602
H -0.0958142366 -1.1506304115 7.7096452631
H -3.5070215123 0.6647729205 6.1098188335
H -2.3979564627 1.4606956420 7.2272931456
H -1.9401286143 1.2670108631 5.5343864592
H -2.3480137765 -1.9092184672 8.2500248253
H -3.1295081574 -0.4826340669 8.3461464876
C -0.5903626979 -5.8647335144 -1.2527457936
C -0.8317577335 -6.9912830441 -0.2244575600
C -1.8573874667 -5.7564474778 -2.1451788382
C 0.6950016845 -6.1961603295 -2.1495441446
N 0.8554444659 -5.1011146504 -3.1370532917
C 1.9732934066 -6.2429850805 -1.2991866520
N 0.4911585629 -7.5257856064 -2.7141958608
H -1.7749623484 -6.8349471566 0.3119991476
H -0.8883607324 -7.9464177268 -0.7474835928
H -0.0222512076 -7.0710769569 0.5088640253
H -1.7800256724 -4.9566182971 -2.8876181706
H -2.0349914679 -6.7052864989 -2.6600147041
H -2.7399377062 -5.5548087610 -1.5295956517
H 1.7696161002 -5.1983459781 -3.5797188464
H 0.1807263158 -5.2259359643 -3.8916881883
H 1.9330830945 -7.0527619022 -0.5681493407
H 2.8406806331 -6.4272554660 -1.9444371163
H 2.1434679454 -5.2955545545 -0.7802957543
H -0.1222067944 -7.5122325909 -3.5249401088
H 1.3693593109 -7.9505977058 -3.0023567530
N -2.0131920218 0.0575376797 -0.4833403769
C -2.3141900503 0.1914139965 -1.7712331134
S -4.0067503072 0.2803421558 -2.0637549008
C -4.3330690309 0.1350391501 -0.3488522087
C -3.1267307180 0.0234528191 0.3122610914
H -3.0417899134 -0.0522573244 1.3859364257
N -0.0086557993 0.0208292272 -2.2338454661
C -1.2215110588 0.2229072760 -2.7419011450
N -1.4426708449 0.4802930325 -4.0314204593
C -0.4256053159 0.3498251917 -5.1213194230
C 0.9161288890 0.4035463752 -4.4389165889
C 1.0742730014 0.2162644318 -3.1216787796
H -0.5246534863 1.2411807795 -5.7449072400
H -2.3863452499 0.7061323744 -4.3202941979
H 2.0424341306 0.2356113537 -2.6392766352
H 1.7682114773 0.6395164246 -5.0627623985
C -0.7480813040 -0.8918429846 -6.0425915034
C -0.8114181227 -2.1976918730 -5.2310782657
C -2.1478789423 -0.6402100362 -6.6550589937
C 0.3292119449 -1.0229196576 -7.2175994376
N 0.6880291803 0.3448348106 -7.6426292749
C 1.6317984472 -1.7225587934 -6.7805587259
N -0.2512495663 -1.8950274210 -8.2490848173
H -1.6691653938 -2.1989520159 -4.5472840072
H -0.9404195381 -3.0359395073 -5.9219271411
H 0.0978797733 -2.3708476325 -4.6457580266
H -2.1979257837 0.2882777841 -7.2381337984
H -2.4290694377 -1.4706150595 -7.3048364543
H -2.9251262874 -0.5859175334 -5.8827995477
H 1.4464176130 0.3050151670 -8.3234636876
H -0.0933566091 0.7831422688 -8.1308315290
H 1.4492681943 -2.7782788081 -6.5705238017
H 2.3586779455 -1.6705403256 -7.6000998085
H 2.0905035222 -1.2649225296 -5.9050028054
H -0.8931812536 -1.3838440562 -8.8516351269
H 0.4806808427 -2.2596253410 -8.8566754066
C -5.7650381866 0.0472180953 0.1659212817
C -6.7626854520 0.3414909084 -0.9760723839
C -5.9912808060 -1.4217949010 0.6238647288
C -6.0034662596 1.0512040026 1.3884278942
N -5.0653071820 0.6810110539 2.4789686651
C -5.6972395239 2.5036842650 0.9938910316
N -7.4190170129 0.9806534941 1.7339015697
H -6.7018407696 -0.4286637470 -1.7541169291
H -7.7768393878 0.3416720493 -0.5757319265
H -6.5947190639 1.3183559716 -1.4419917516
H -5.3043101267 -1.7175797343 1.4221347983
H -7.0215051841 -1.5560568518 0.9667854619
H -5.8430286251 -2.1077490468 -0.2161945644
H -5.0838444028 1.4191496408 3.1832751002
H -5.4148109729 -0.1488656983 2.9578668545
H -6.3532885003 2.8410143134 0.1891055681
H -5.8752422001 3.1599644339 1.8552884797
H -4.6537683665 2.6275890273 0.6918999388
H -7.6489563772 0.1405459289 2.2591542378
H -7.7061572293 1.7785623205 2.2958835904
