115
# extracted from Terachem optimization
Cr 0.1611259919 0.0615533561 0.1456537916
N 0.4045118855 2.1175141408 0.3937129703
C 1.6534197840 2.4822958971 0.5596026395
S 2.2679566394 4.1116554759 0.6668770969
C 0.7170430531 5.1162796623 0.9265417487
C -0.5096122146 4.3849448880 0.4829913965
C -0.6304466779 3.0656109647 0.2747077753
H 0.6622533309 5.3499302865 1.9960161397
H -1.5876327671 2.6350115610 0.0118503258
H -1.3959881599 5.0003592306 0.3616017219
N 2.1686006233 0.1699614852 0.4267059317
C 2.6572238586 1.3724043695 0.6180441444
C 4.0557694585 1.6295230268 0.8750243415
C 4.9759567571 0.6669505894 0.6208123743
C 4.5131147192 -0.6708864092 0.1129399222
C 3.0932917315 -0.9723014824 0.5930572345
H 4.5824781525 -0.6709866826 -0.9853056503
H 5.1767220364 -1.4620067380 0.4749119751
H 4.3791162957 2.6083811109 1.2080909575
H 3.1084944512 -1.2165266299 1.6657192801
H 2.6688795936 -1.8293441912 0.0667575983
C 6.4837004881 0.9166821084 0.8248870479
N 6.8314131999 0.1518910324 2.0034935444
N 7.1724616552 0.4969010495 -0.3813390096
O 6.7484046412 2.2879991115 1.0320591370
H 7.8454577338 0.0576166178 2.0679890839
H 6.5249266533 0.6421637624 2.8439326754
H 8.1390765923 0.8210517676 -0.3396604987
H 7.1999215001 -0.5175430244 -0.4649536074
H 6.7757545047 2.7271846565 0.1626734094
C 0.9112725552 6.4917497900 0.1978719732
N 2.2118032514 6.9760409082 0.6089180884
N 0.7731970696 6.3097373370 -1.2304156018
O -0.1147193421 7.3505628513 0.6488697169
H 2.4963116626 7.7681917472 0.0336354600
H 2.1797058905 7.3146046536 1.5718068136
H 0.8457374277 7.2147573628 -1.6970043012
H 1.5193221548 5.7221699598 -1.5993386675
H -0.8542896418 7.3127538672 0.0184012002
N -0.0077448074 -2.0018415347 0.2590167240
C -0.1676176785 -2.4643152050 1.4782864434
S -0.3499389077 -4.1385299234 1.9325948077
C 0.3082419836 -5.0051717655 0.4218672353
C 0.0510424957 -4.1981809507 -0.8130618286
C -0.0495299691 -2.8614203744 -0.8571807463
H 1.3824948537 -5.1580964486 0.5766455250
H -0.1733558429 -2.3373443427 -1.7951573959
H -0.0209074759 -4.7513944306 -1.7439135852
N -0.1786465646 -0.1928154896 2.1657218853
C -0.2427614961 -1.4408730323 2.5671179674
C -0.3841538295 -1.8326274834 3.9514079831
C -0.7637402264 -0.9174311802 4.8763743010
C -0.9815324168 0.5050803732 4.4439451573
C -0.1221145988 0.8397386015 3.2248733269
H -2.0523446455 0.6507001920 4.2363359414
H -0.7150050104 1.1909627772 5.2539322503
H -0.2537130218 -2.8678381741 4.2429229761
H 0.9322696511 0.9272331131 3.5280733372
H -0.4227449087 1.7943497699 2.7927488176
C -0.9812813460 -1.3065848114 6.3523316433
N 0.1450756716 -0.7324124863 7.0581683880
N -2.2711599296 -0.7899303115 6.7679745258
O -0.9952291868 -2.7099667744 6.5090274507
H -0.0405014803 -0.7312387634 8.0616194520
H 0.9778681330 -1.3032479475 6.9120526333
H -2.5024512497 -1.1720508969 7.6854662849
H -2.2598199136 0.2241106666 6.8601328117
H -1.8863975832 -3.0304315352 6.2800844850
C -0.3313765510 -6.4349455202 0.3744112083
N -0.2113149539 -6.9736584097 1.7134876552
N -1.6918483957 -6.3455950967 -0.1060379337
O 0.4292541786 -7.1877649685 -0.5479055766
H -0.7603372442 -7.8280161326 1.8047267057
H 0.7571765198 -7.2319084974 1.9080671943
H -2.0999884636 -7.2797837531 -0.1565239435
H -2.2750106485 -5.7969977274 0.5238469701
H -0.0302071079 -7.1884466515 -1.4049784127
N -1.8779154999 0.0987392355 -0.4317650959
C -2.1038952909 0.3326731236 -1.7028760339
S -3.6529099585 0.4243633527 -2.4961698405
C -4.8048911679 0.6321459513 -1.0487348353
C -4.2469763710 -0.0236523234 0.1755504255
C -2.9447779883 -0.2117855074 0.4365172972
H -4.9415531574 1.7085621028 -0.8931336896
H -2.6323705772 -0.6463634659 1.3754573430
H -4.9696690433 -0.3353011161 0.9227992899
N 0.2457771485 0.2926028286 -1.9151228068
C -0.8853294508 0.4771691750 -2.5529069733
C -0.9783955784 0.7785266306 -3.9623870240
C 0.0940601499 0.5828516224 -4.7669416812
C 1.3810252344 0.1056947264 -4.1568156283
C 1.4832356206 0.5312636788 -2.6909332443
H 1.4337419888 -0.9880962787 -4.2667522458
H 2.2342427228 0.5234430845 -4.7005240888
H -1.9240363851 1.0866805584 -4.3921253789
H 1.6963008630 1.6089887836 -2.6306366294
H 2.3014463236 0.0083267610 -2.1965176837
C 0.0071257904 0.8069497727 -6.2902275309
N 0.7631045578 2.0151456312 -6.5450819226
N 0.5378269721 -0.3747762046 -6.9436204171
O -1.3349913593 0.9743247050 -6.6965907209
H 0.9392009982 2.1031020190 -7.5465011692
H 0.2176134209 2.8320268727 -6.2692333471
H 0.3243909687 -0.3263544687 -7.9402555401
H 1.5509706666 -0.4279589722 -6.8563076080
H -1.7388268618 0.0913879761 -6.7764394358
C -6.2060215691 0.0750170443 -1.4755995568
N -6.4809263412 0.6421689532 -2.7792490244
N -6.1847016885 -1.3708633941 -1.4552161949
O -7.1379965502 0.5280575363 -0.5151685544
H -7.2909059555 0.1880365533 -3.2000747143
H -6.7156220324 1.6323858041 -2.6961565970
H -7.1063288972 -1.7306413847 -1.7063329247
H -5.5220375326 -1.7431792035 -2.1335284583
H -7.2817538260 -0.1788869862 0.1369395381
