178
# extracted from Terachem optimization
Cr -0.4410382802 -0.0352744738 -0.0633274193
O -0.4915298223 2.1139579334 -0.0496378742
C 0.5515831859 2.7019140313 -0.8939407256
C 0.7254980852 4.2027343286 -0.6953972340
C 0.8421081237 4.5791127882 0.7946553889
C -0.3565274246 3.9781893850 1.4913814579
C -0.9449806257 2.8720129988 1.0426381877
H 1.7571123909 4.1030511084 1.1765733144
H -0.1473329382 4.6931508464 -1.1348425173
H 1.6018988102 4.5333551150 -1.2558562581
H -1.8454462347 2.4242653416 1.4422837092
H -0.7767562535 4.4893655919 2.3520888812
H 0.2070107288 2.5046333954 -1.9159177156
N 1.5792295609 0.6044355718 -0.3076816455
C 1.7725983631 1.8377133541 -0.6569621385
O 2.9430685335 2.4340826558 -0.7997914601
C 4.1753429697 1.6197983654 -0.9532228158
C 3.9772122372 0.3440918664 -0.1888585283
C 2.7451282898 -0.1185443978 0.0550140623
H 4.9494303461 2.2291497908 -0.4906502673
H 2.5564112523 -1.0409513272 0.5915110654
H 4.8617472861 -0.1742196182 0.1597708413
C 4.4680976661 1.4898759355 -2.4878783497
O 3.3484465291 0.8439250984 -3.1082575667
C 4.5034515842 2.8986261826 -3.0936055029
C 5.8116359481 0.6800119843 -2.7507112833
N 6.7382278569 1.0096130294 -1.6430491436
C 5.5812513176 -0.8471488830 -2.7185571104
C 6.4132850523 1.0102512456 -4.1341226194
H 3.3516440939 -0.0817903177 -2.8155007273
H 5.3587295277 3.4736290981 -2.7235042124
H 4.5684674743 2.8395042593 -4.1806953355
H 3.5939672548 3.4452751060 -2.8399763776
H 7.5547544202 0.4011153239 -1.6984697341
H 7.1040722902 1.9544392965 -1.7687674941
H 4.9784311732 -1.1736006187 -3.5724199535
H 6.5469814769 -1.3561747601 -2.8085357550
H 5.1154186328 -1.1995577436 -1.7949147494
H 5.6942554226 0.8441250617 -4.9443100765
H 6.7634327498 2.0448735780 -4.1944594905
H 7.2759308124 0.3598213815 -4.3156632587
C 1.0527293513 6.1265041030 0.9888610298
O 2.1665676740 6.4867217317 0.1591832601
C -0.1314740313 6.9169444529 0.4144150890
C 1.3553734177 6.5402750313 2.4890603739
N 0.0889359043 6.4551424538 3.2557251717
C 2.3475593776 5.5746707583 3.1678005135
C 1.9581896464 7.9635653500 2.5430378543
H 2.9790899224 6.1448912742 0.5663974712
H -1.0866516745 6.5487156289 0.7990963773
H -0.0468625450 7.9816272112 0.6433042970
H -0.1398176265 6.8336147898 -0.6751357285
H 0.2987313008 6.5932302168 4.2450102752
H -0.5137010487 7.2373588574 3.0001590634
H 3.2687597210 5.4459763311 2.5864551813
H 2.6487889723 5.9769978745 4.1413269092
H 1.9012604065 4.5903830265 3.3378426415
H 2.9244473549 8.0326483116 2.0362155703
H 1.2977666899 8.7079554416 2.0883649308
H 2.1045195994 8.2478836636 3.5912470441
O -0.3945352229 -2.2148948692 0.1445957525
C -0.9782458379 -2.5360772655 1.4404640491
C -0.7488568584 -3.9884263759 1.8519608424
C 0.7438136017 -4.3642324782 1.8498420316
C 1.3383235569 -3.8735711127 0.5509333081
C 0.7719895896 -2.9240762386 -0.1907307239
H 1.2175788177 -3.8172190725 2.6767109045
H -1.2965161395 -4.6060534716 1.1345054343
H -1.2007315372 -4.1581599431 2.8304446411
H 1.1509919681 -2.5581773135 -1.1361125570
H 2.2525807094 -4.3390199681 0.1942340410
H -2.0500884688 -2.3650528041 1.2994065701
N -0.1148032251 -0.3118874635 1.9772022704
C -0.4984622914 -1.4763156597 2.4215532717
O -0.4918336228 -1.8512657104 3.6791874314
C -0.3925433806 -0.8236165774 4.7550482400
C 0.4802236172 0.2789572052 4.2374412512
C 0.5433165766 0.5181040492 2.9230080422
H 0.0901128608 -1.3553748696 5.5712330447
H 1.1367206891 1.3117161920 2.4871267178
H 1.0432626428 0.8601942927 4.9569349496
C -1.8508111932 -0.4256839978 5.1742842304
O -2.5062348324 0.1557603214 4.0381104480
C -2.6389732106 -1.7037923847 5.4850038806
C -1.8286024682 0.5876110513 6.4033694929
N -0.6697640554 0.2153165422 7.2472118956
C -1.6108886351 2.0457762923 5.9457595499
C -3.1601437381 0.5579136937 7.1840821246
H -2.0908880354 1.0185259289 3.8778519454
H -2.2473040276 -2.2110755295 6.3730864193
H -3.6890511418 -1.4644748293 5.6558508766
H -2.5872240917 -2.4040785372 4.6493478777
H -0.5147787495 0.9417596409 7.9459620387
H -0.8870646928 -0.6255370700 7.7840613309
H -2.4765623822 2.4204009791 5.3899185047
H -1.5110040528 2.6862128249 6.8288487237
H -0.7104547061 2.1839800177 5.3424199092
H -4.0197948785 0.7399865726 6.5294641312
H -3.3160150691 -0.3959777974 7.6964736946
H -3.1487749605 1.3440393253 7.9467649419
C 0.9600769779 -5.8946718536 2.1679749569
O 0.1851881149 -6.1733747317 3.3420441068
C 0.3430504230 -6.7725095753 1.0710962439
C 2.4762154312 -6.2744555852 2.4352317616
N 3.2013270798 -6.2302932202 1.1420341013
C 3.1740883945 -5.2617518680 3.3667141994
C 2.5734149755 -7.6709779987 3.0934725971
H 0.6294480948 -5.7715334494 4.1060409441
H 0.7037886861 -6.4870367653 0.0790751832
H 0.5644621226 -7.8285809292 1.2382130264
H -0.7456571409 -6.6786388620 1.0834684192
H 4.2000474404 -6.3315025597 1.3262710021
H 2.9498126184 -7.0476122884 0.5857767742
H 2.6222804070 -5.1033865783 4.3013121583
H 4.1604708484 -5.6428582273 3.6530379612
H 3.3228236750 -4.2926643883 2.8813582036
H 2.0805375410 -7.7130315915 4.0684173583
H 2.1303490084 -8.4526992575 2.4695028016
H 3.6299210271 -7.9244043754 3.2360970090
O -2.5000244415 -0.4780333908 -0.1668285460
C -2.9171842103 -1.0886307239 -1.4297136423
C -4.3492644383 -0.7282553546 -1.8374882763
C -4.6903888954 0.7454707799 -1.5276938883
C -4.4468022638 0.9360960158 -0.0498356252
C -3.4379153907 0.3084665573 0.5442658260
H -3.9773588166 1.3703327502 -2.0874887965
H -5.0252098475 -1.3807100819 -1.2800065523
H -4.4783464457 -0.9440692903 -2.8990705268
H -3.2026755981 0.2919024512 1.6022436199
H -5.1321986763 1.5488311829 0.5282862157
H -2.8474545012 -2.1725155126 -1.2706587443
N -0.6797702676 -0.3267944636 -2.1402646129
C -1.8530438081 -0.7882780040 -2.4651178195
O -2.2492164331 -1.0835412414 -3.6885442287
C -1.2495962814 -1.4196849662 -4.7277842262
C -0.0300322442 -0.5914254588 -4.4556921745
C 0.2038693776 -0.0997049762 -3.2336123648
H -1.7228245314 -1.1012134076 -5.6554368561
H 1.0733653859 0.5087146705 -3.0194302633
H 0.6345202274 -0.3853191214 -5.2855103284
C -1.1133648235 -2.9849883121 -4.7268556693
O -0.7877021184 -3.4098283491 -3.3976784815
C -2.5019966015 -3.5765418606 -5.0024519227
C -0.0285873929 -3.4718786198 -5.7775013025
N -0.1084716908 -2.5451667049 -6.9294108152
C 1.4043444832 -3.3752097697 -5.2083625621
C -0.2523871042 -4.9438698254 -6.1835479799
H 0.1477314224 -3.2106637214 -3.2395633244
H -2.8337884756 -3.3618461459 -6.0235636758
H -2.4857490134 -4.6577015968 -4.8598544607
H -3.2381149376 -3.1566819996 -4.3146968913
H 0.6636549635 -2.7351569134 -7.5679540950
H -0.9529226261 -2.7391399104 -7.4689978416
H 1.5718078242 -4.1232904120 -4.4255506665
H 2.1232705594 -3.5982637398 -6.0044456236
H 1.6478762168 -2.3831612736 -4.8190519293
H -0.2848264942 -5.6058630728 -5.3107898716
H -1.1790450478 -5.0792496902 -6.7487907585
H 0.5734756652 -5.2744483014 -6.8234642803
C -6.1166970439 1.1368441126 -2.0539944388
O -6.1113664713 0.8786306297 -3.4654198624
C -7.1903605328 0.1940210900 -1.4935200865
C -6.4892332767 2.6587511174 -1.7946279992
N -6.8128115222 2.8176097867 -0.3560458254
C -5.3035960470 3.5992957836 -2.0899424591
C -7.6753798097 3.0823915126 -2.6908656244
H -5.5733098473 1.5587109149 -3.9021774807
H -7.1378820169 0.1234110475 -0.4032612384
H -8.1920968836 0.5252589097 -1.7763474553
H -7.0641699306 -0.8065493055 -1.9143386251
H -6.9158487531 3.8124145802 -0.1526174560
H -7.7285548636 2.4100922539 -0.1674185232
H -4.9092694059 3.4633906309 -3.1048481536
H -5.6319544784 4.6425398764 -2.0223518038
H -4.4846673883 3.4629076702 -1.3770002075
H -7.4428399703 3.0180118154 -3.7571269782
H -8.5633750578 2.4687227712 -2.5128013153
H -7.9403166898 4.1214071009 -2.4647572947
