130
# extracted from Terachem optimization
Cr -0.0277339473 -0.2266208726 -0.1168885275
O 0.1944318044 1.9171248162 -0.0816358349
C 1.5599059896 2.3422676954 -0.1968832325
O 1.8007013824 3.4598121687 0.5965654417
C 1.0357202585 4.6307249518 0.2475137048
C -0.4492880337 4.2674663793 0.0300440120
C -0.6653793635 2.9339668166 -0.6848155926
H 1.0821603624 5.2347478724 1.1580964996
H 1.7542460736 2.5756922595 -1.2518099713
H -1.6881552811 2.5718865175 -0.5684064457
H -0.4285822647 2.9854534815 -1.7497373447
H -0.9533020879 5.0686623418 -0.5161982391
H -0.9158199024 4.2056853215 1.0191610069
N 2.0130457259 0.0078021530 0.2247283291
C 2.4836176235 1.2107290613 0.2338145636
S 4.0912610801 1.7779305840 0.6135269523
C 5.0773946518 0.1869597830 0.6642415989
C 4.3065113171 -0.9773118584 0.0445016383
C 2.8928237501 -1.1034743089 0.6155244082
H 5.2589089180 -0.0001074340 1.7265602888
H 4.2572161966 -0.8538157260 -1.0425210471
H 4.8522453411 -1.9037473611 0.2432194316
H 2.9239236752 -1.1485932023 1.7136826882
H 2.4209943782 -2.0287594094 0.2789594739
C 6.4538349811 0.5121637122 0.0276666186
O 6.8425335988 1.7259773355 0.5881369595
O 6.2705829161 0.5775101468 -1.3773220526
C 7.4865234469 -0.6211114183 0.3205982745
O 7.2161066522 -1.7715853995 -0.3620944945
Cl 9.1689301714 0.0549134546 -0.1607850277
H 7.8098093699 1.8283594739 0.5007591728
H 7.0389222994 1.0428698062 -1.7533902448
H 7.5807592297 -0.8468422499 1.3821503689
H 7.0075112670 -1.5119762169 -1.2812032217
C 1.7626209742 5.5694313316 -0.7774839888
O 1.0923100775 6.7821805108 -0.5782953688
O 3.1384272670 5.6481207108 -0.4546054466
C 1.8788497723 5.2384275163 -2.2955908329
O 2.5619360816 4.0360725371 -2.5406052743
Cl 0.3091096371 5.1643257475 -3.1634501483
H 1.5145140725 7.4777485707 -1.1120851832
H 3.2419049064 5.8106330892 0.4986479594
H 2.4115795220 6.0825957960 -2.7489351140
H 3.4294096254 4.1390127495 -2.1030355046
O -0.1518589150 -2.3185215951 0.0962440308
C -0.5425205624 -2.7737347411 1.4111482485
O 0.1588130654 -3.9237099323 1.7497716459
C -0.0848266055 -5.0601441033 0.8938768847
C 0.1074476391 -4.6454074763 -0.5744875479
C -0.5543805407 -3.3099203634 -0.9022538738
H 0.7285373736 -5.7404894804 1.1555491850
H -1.6195967430 -2.9680001831 1.3889434070
H -0.2176441605 -2.9172840494 -1.8632362774
H -1.6450620556 -3.3666483586 -0.8996585080
H -0.2636834924 -5.4224658449 -1.2463807901
H 1.1850132520 -4.5486473073 -0.7474096388
N -0.1610301195 -0.4632912443 1.9819058030
C -0.2596822136 -1.6709714126 2.4244692625
S -0.1897957452 -2.2771135571 4.0621428141
C -0.1911757421 -0.6960922264 5.0644025065
C -0.6890267184 0.4886088952 4.2391909251
C 0.0812209040 0.6345974304 2.9274439764
H 0.8502272702 -0.5410376211 5.3609518715
H -1.7597171219 0.3745538066 4.0376283477
H -0.5649828681 1.4021999166 4.8271495507
H 1.1627092059 0.6810221905 3.1205037256
H -0.1809727093 1.5639240125 2.4169186094
C -0.9818667317 -1.0100354241 6.3621350753
O -0.5022098053 -2.2423005037 6.7946664507
O -2.3613751282 -1.0309889132 6.0314370141
C -0.7677133627 0.1117524587 7.4269087081
O -1.4139745261 1.2696726602 7.1046665378
Cl -1.3915182707 -0.5654220003 9.0593798540
H -0.6752235313 -2.3396951003 7.7512719651
H -2.8166405783 -1.5837936505 6.6902600687
H 0.2841659346 0.3273017169 7.6115156625
H -2.3127906829 1.0180020104 6.8124793175
C -1.3480177520 -5.9079013768 1.3163006850
O -0.9506273563 -7.2024777154 0.9486033750
O -1.5759491095 -5.7817107402 2.6954913155
C -2.7767563890 -5.6211266325 0.7568263909
O -3.1534888612 -4.3153528205 0.9556315720
Cl -2.9337478251 -6.0803296270 -1.0462817969
H -1.6214728324 -7.8429693290 1.2436524921
H -0.7328046831 -5.9063680825 3.1646800788
H -3.4535768775 -6.3260375069 1.2455579159
H -4.1247048155 -4.2244770171 0.9102197936
O -2.1800050783 -0.1956741401 -0.4457552779
C -2.5471286819 -0.3545799064 -1.8290838919
O -3.6628525499 0.4165971880 -2.1401164170
C -4.8642066972 0.0776006671 -1.4195115011
C -4.5565897950 0.0653469239 0.0849484600
C -3.2600118376 -0.6668147836 0.4204825626
H -5.5176624682 0.9294008431 -1.6202766415
H -2.7521084903 -1.4171413219 -1.9997205915
H -2.9451654091 -0.4440850059 1.4404310663
H -3.3421390158 -1.7483315164 0.2963257447
H -5.3839453692 -0.3713278556 0.6492549239
H -4.4571113343 1.1092249395 0.4017967657
N -0.1961934664 0.0712975732 -2.2159202799
C -1.3853117827 0.0656454329 -2.7213761853
S -1.9170626641 0.3866017892 -4.3560424256
C -0.3059438009 0.4331684610 -5.3011865263
C 0.8230709792 -0.2088774271 -4.4993156277
C 0.9402670359 0.3907599505 -3.0970093594
H -0.0975983082 1.4935956139 -5.4707965137
H 0.6638527493 -1.2904935903 -4.4352791328
H 1.7664905180 -0.0465123431 -5.0277786503
H 1.0366428125 1.4829795505 -3.1656100044
H 1.8442126062 0.0238151683 -2.6060911635
C -0.6018418174 -0.1964749586 -6.6875298831
O -1.8099313110 0.3580087438 -7.0994313777
O -0.6635478323 -1.6037534941 -6.5147490044
C 0.5535863735 0.1047760961 -7.6930058617
O 1.6933014144 -0.5885501869 -7.4041773739
Cl -0.0861899127 -0.3526974641 -9.3965419899
H -1.8859118706 0.2840033057 -8.0703574876
H -1.1597777459 -1.9715059127 -7.2670386266
H 0.7868766418 1.1661263971 -7.7694385124
H 1.4190874941 -1.5067230026 -7.2089595388
C -5.6807483069 -1.1025074663 -2.0745208145
O -6.9981582441 -0.7315363835 -1.7638568972
O -5.4441890060 -1.1580217333 -3.4567104524
C -5.4561513506 -2.5980237464 -1.6853741383
O -4.1350356107 -2.9669949529 -1.7882210081
Cl -6.1102583345 -2.9872886857 0.0163200236
H -7.6178605094 -1.3385271397 -2.2052879580
H -5.4816905811 -0.2569330361 -3.8213005632
H -6.1020818455 -3.1919341966 -2.3362700765
H -4.0556201872 -3.9373370902 -1.8590909454
