151
# extracted from Terachem optimization
Cr -0.1345057282 -0.1608067814 0.1307067479
N -0.1261266395 2.0794600299 0.1863403608
C 0.9054931748 2.7259571056 0.6346544097
S 1.1432047150 4.4165745167 0.8965093005
C -0.5136775524 5.2020538654 0.4846222070
C -1.4549688108 4.1587032004 -0.0586044167
C -1.2740836590 2.8357798798 -0.1698915430
H -0.8953566322 5.5630781848 1.4428820190
H 1.7867868086 2.1500457860 0.8988540364
H -2.0756720114 2.2244173044 -0.5571860682
H -2.4110377120 4.5522775823 -0.3853259094
C -0.2950851957 6.4822483044 -0.4240293860
C 0.7492818911 7.3938705610 0.2552087354
C 0.1653893510 6.0857698743 -1.8330737957
C -1.6748478515 7.2329379159 -0.4909255547
O -2.6742752286 6.5716800343 -1.2064098845
O -2.1154523824 7.4364102565 0.7835874514
Cl -1.4586128374 8.8970886570 -1.3665090923
H 1.7200154489 6.8925854243 0.3251645542
H 0.9018911929 8.3022075340 -0.3293107971
H 0.4318153126 7.6855650746 1.2605053114
H -0.5511714429 5.4161846416 -2.3207613084
H 0.3001701454 6.9723815403 -2.4580653902
H 1.1289026550 5.5685033133 -1.7817546124
H -2.6017188441 6.8013189448 -2.1473999338
H -2.9977871068 7.8476979915 0.7399157232
N 2.0800872594 -0.0620017955 0.1053097027
C 2.7132726628 0.2197768131 -0.9957918509
S 4.4126819874 0.2489068635 -1.3148246966
C 5.1268152448 -0.6588241948 0.1657866771
C 4.1862108127 -0.4899803212 1.3326762102
C 2.8636677163 -0.2792263903 1.2717564100
H 5.1689399330 -1.7107540788 -0.1300545820
H 2.1289903257 0.5216260702 -1.8601749352
H 2.2750945954 -0.2259209815 2.1759466270
H 4.6328276815 -0.6080435890 2.3137775888
C 6.6183576458 -0.1947100507 0.3968002415
C 7.3857221421 -0.3386099465 -0.9353073668
C 6.6832991623 1.2554698890 0.9008234803
C 7.2346124180 -1.1721598353 1.4650375981
O 6.7254705758 -1.0254420566 2.7576549053
O 7.0160146083 -2.4548658965 1.0553568410
Cl 9.0912551814 -0.8587383795 1.6277238092
H 6.9910324281 0.3514813304 -1.6882104540
H 8.4397515744 -0.0915626358 -0.8011999232
H 7.3223927444 -1.3579237031 -1.3275529100
H 6.1224568572 1.3940830244 1.8307932466
H 7.7207669415 1.5559102412 1.0691057585
H 6.2602584836 1.9356669486 0.1551620349
H 7.2311788819 -0.3389385810 3.2232530049
H 7.3472001844 -3.0555884754 1.7474431193
N -0.1221811542 -2.3726102673 0.1170755562
C 1.0034949734 -3.0148967351 0.0048796261
S 1.2965182459 -4.6978306347 -0.2654004596
C -0.3872535452 -5.3254095728 -0.8081792355
C -1.4513044807 -4.4284103281 -0.2274068177
C -1.3181449545 -3.1408458790 0.1224764341
H -0.3901016657 -5.2457941677 -1.8987974535
H 1.9205440629 -2.4462438197 0.1229153429
H -2.1760905203 -2.5830025496 0.4694417092
H -2.4360179181 -4.8748960620 -0.1424549836
C -0.5060905069 -6.8629083215 -0.4680309812
C 0.7146266557 -7.5922418265 -1.0706540794
C -0.5780355448 -7.1004550214 1.0484042136
C -1.8205660766 -7.3793838960 -1.1626814673
O -3.0084989021 -6.9213986670 -0.5876668867
O -1.7990342348 -6.9949634520 -2.4724079656
Cl -1.9125108237 -9.2620475771 -1.0504505776
H 1.6446115938 -7.2458753834 -0.6079356618
H 0.6509012577 -8.6654212760 -0.8858855271
H 0.7813149714 -7.4360167183 -2.1512460348
H -1.4202923326 -6.5749722129 1.5103770059
H -0.6728916825 -8.1683984692 1.2621112069
H 0.3374769463 -6.7480113136 1.5333531390
H -3.2613674066 -7.5152079313 0.1385524346
H -2.6419077334 -7.2634237368 -2.8811742305
N -2.4194120320 -0.1869394021 0.1787270901
C -3.1629677286 0.0093579711 -0.8682051895
S -4.8855112788 0.1544639913 -0.9873634782
C -5.3677074794 0.5092652997 0.7892015086
C -4.3756147358 -0.1814600702 1.6909989611
C -3.0870792970 -0.4216541426 1.4101796661
H -5.2809147431 1.5933708619 0.9045147853
H -2.6691786424 0.0816147642 -1.8323423191
H -2.4452284611 -0.8543388944 2.1637602968
H -4.7316281470 -0.4348525723 2.6829976270
C -6.8887234458 0.1455723961 1.0023099003
C -7.7238471963 0.8738454217 -0.0737999874
C -7.1196640877 -1.3719718991 0.9249392706
C -7.2852911811 0.6836904095 2.4249710596
O -6.7172137810 -0.0101487604 3.4960638464
O -6.9145119140 1.9938368389 2.5131496856
Cl -9.1541073050 0.5280658891 2.6718643869
H -7.4648500070 0.5186762259 -1.0764221659
H -8.7872547108 0.6773570092 0.0681711840
H -7.5691395147 1.9560908075 -0.0361619497
H -6.5199561916 -1.9195540823 1.6597131429
H -8.1743655216 -1.6062451434 1.0915116713
H -6.8494494021 -1.7479451670 -0.0664463091
H -7.2723145420 -0.7791731518 3.7064942697
H -7.1001462644 2.2991890425 3.4195432725
N -0.1281985337 -0.2485950852 2.3952860651
C 0.1445678880 -1.3383433690 3.0416544539
S 0.0675280166 -1.6911616315 4.7338669001
C -0.6308974097 -0.1300557806 5.5100856709
C -0.7695026483 0.9493148209 4.4683042907
C -0.5637222251 0.8764278577 3.1461040049
H -1.6273268613 -0.4148113206 5.8573090521
H 0.4861444181 -2.1950910198 2.4688592875
H -0.7541555203 1.7442801270 2.5308392795
H -1.1111454483 1.9019000701 4.8588319436
C 0.1993771821 0.2489494474 6.8072708020
C 0.2737452362 -0.9939595715 7.7189250393
C 1.6073716827 0.7380549117 6.4406812162
C -0.5991060850 1.3874409144 7.5365792271
O -0.5847988936 2.6237814957 6.8897443408
O -1.8966270960 0.9903990150 7.6764864749
Cl 0.1554545452 1.7142390532 9.2423574430
H 0.7978287515 -1.8140173105 7.2179643548
H 0.8320744559 -0.7688234264 8.6287069811
H -0.7235663714 -1.3377420655 8.0088224686
H 1.5753426117 1.5966656611 5.7615773140
H 2.1655226710 1.0170850831 7.3387355469
H 2.1647119290 -0.0618637895 5.9428463727
H 0.2237667274 3.1036766573 7.1332059040
H -2.3974973663 1.7248259857 8.0753583588
N -0.2575607310 -0.1298900809 -2.0591591821
C -0.5962151581 -1.2038456552 -2.7112171923
S -0.6324970854 -1.4945247632 -4.4144858408
C 0.3625473829 -0.0553932126 -5.0980963522
C 0.2435062843 1.1058839519 -4.1427146457
C 0.0262096319 1.0360256506 -2.8212964006
H 1.3978357900 -0.4078903140 -5.1275600188
H -0.9546675042 -2.0541255762 -2.1379798114
H 0.0291198991 1.9353476219 -2.2212980851
H 0.4120643116 2.0861175518 -4.5733118032
C -0.0714109609 0.2150718013 -6.5922047537
C -0.0264908554 -1.1241807927 -7.3626003324
C -1.4786462527 0.8278743596 -6.6703862864
C 0.9935859121 1.1886570297 -7.2083588291
O 0.8681637066 2.4494708281 -6.6392200927
O 2.2426625094 0.6224160561 -7.0330029381
Cl 0.7271740452 1.4231043367 -9.0457051671
H -0.8003836854 -1.8060451704 -6.9962748652
H -0.2258700808 -0.9631260066 -8.4232469477
H 0.9480860925 -1.6104622898 -7.2679257620
H -1.5489485321 1.7753589105 -6.1304208914
H -1.7548987090 1.0088600457 -7.7121683072
H -2.2131086576 0.1347858746 -6.2475227103
H 1.3422978871 3.1009894189 -7.1840275349
H 2.8973575037 1.0762251701 -7.5909557685
