166
# extracted from Terachem optimization
Cr -0.2288659775 -0.2107381085 0.0604006779
O -0.1909742978 2.3719624870 0.0904116357
C 0.9676793676 2.8035167163 -0.6474006647
C 1.3980466146 4.0829457933 0.0174019838
C 0.5117687535 4.4682122488 0.9418731177
C -0.5960668732 3.4360964667 0.9976999693
H -0.7287828479 2.9989708865 1.9926332491
H -1.5646722291 3.8280313512 0.6655629552
H 2.3090638517 4.5916402165 -0.2705231004
H 0.6872571770 2.9603193527 -1.7032153148
N 1.7550452642 0.4398581478 -0.2817635275
C 1.9799290133 1.6914568257 -0.5863219890
O 3.2545145229 1.9227148791 -0.8943643011
C 3.9369438088 0.7101250542 -0.7705911624
C 2.9982877308 -0.1972413358 -0.3889665857
H 3.1043803446 -1.2450393183 -0.1639892978
C 5.4127562980 0.7879938677 -1.0770263224
C 5.5693932656 1.3384459626 -2.5231069329
C 6.0505260138 1.8157041733 -0.1003983334
C 6.1412651036 -0.6109219150 -0.9439720359
C 6.1334221089 -1.1580764481 0.4960590097
C 5.6101227504 -1.6694601724 -1.9293859317
O 7.4902225601 -0.2991889503 -1.3081394546
H 5.1837728997 2.3597726682 -2.5850637626
H 6.6274329351 1.3498476168 -2.7895169156
H 5.0335078125 0.7292822193 -3.2573999856
H 5.8426570189 1.5744646182 0.9460777924
H 7.1315971541 1.8233354787 -0.2485077429
H 5.6655767743 2.8199160994 -0.2986634610
H 5.1248472036 -1.2967642142 0.8984192300
H 6.6304418500 -2.1350638403 0.5202822365
H 6.6815581463 -0.4922183435 1.1661736689
H 5.7376978227 -1.3393568737 -2.9627706348
H 6.1815558057 -2.5967194600 -1.8061394751
H 4.5555709712 -1.9179947216 -1.7713023941
H 8.0248852122 -1.1035320877 -1.2114659894
C 0.5626593167 5.6910984257 1.8533467013
C -0.1391799478 5.3592034948 3.1935156641
C 2.0352816591 6.0307523064 2.1838371467
C -0.1423232127 6.9488257843 1.1758642761
C 0.6363667644 7.4907000698 -0.0339640194
C -1.5968355565 6.6730722283 0.7537984949
O -0.1370598897 7.9307734813 2.2184089774
H 0.3618592891 4.5162728046 3.6843508943
H -0.0862765600 6.2221117488 3.8585697241
H -1.1968547237 5.1031989264 3.0733791498
H 2.6468629284 6.1900830813 1.2923352448
H 2.0753479539 6.9423165450 2.7838948522
H 2.4909624368 5.2163285990 2.7575527842
H 0.7379186844 6.7463945248 -0.8306298361
H 0.0970346171 8.3453018305 -0.4599715145
H 1.6300819965 7.8400163928 0.2550423500
H -2.2052135367 6.3185630749 1.5901982012
H -2.0512484393 7.6035658442 0.3952128125
H -1.6555045478 5.9539839428 -0.0713372402
H -0.4393259733 8.7737829508 1.8438747346
O -0.2406272186 -2.6526431763 0.4716285609
C -0.3517119387 -2.9397875584 1.8773729227
C 0.6327096534 -4.0548026606 2.1134539329
C 1.1316438525 -4.5128679210 0.9591846987
C 0.4916549566 -3.7310982304 -0.1718812392
H 1.2031348780 -3.2876032134 -0.8756480450
H -0.2263751853 -4.3327192336 -0.7411166353
H 0.8533870098 -4.4122539914 3.1102004904
H -1.3863682169 -3.2466608059 2.1073313291
N 0.0276621140 -0.4567660718 2.1405899693
C -0.0550225513 -1.6693809562 2.6266102949
O 0.1511693601 -1.7095419936 3.9410707099
C 0.4133193371 -0.4026730602 4.3590788423
C 0.3352558905 0.3592351706 3.2360848304
H 0.4865913113 1.4164188568 3.1069712988
C 0.6800873781 -0.2545786017 5.8370475622
C -0.5864616897 -0.7315531777 6.6015423363
C 1.8519152241 -1.2038344884 6.2115402955
C 1.0343383834 1.2336091367 6.2430980264
C 2.3141636220 1.7618729642 5.5658866288
C -0.1353036499 2.2123846194 6.0263830588
O 1.2823623880 1.1319202864 7.6493842610
H -0.7491676270 -1.8011178199 6.4408725026
H -0.4422572347 -0.5590416705 7.6694354155
H -1.4884867373 -0.2016247392 6.2812545837
H 2.7493710511 -1.0088824603 5.6171446802
H 2.0975395423 -1.0672683127 7.2656502381
H 1.5620529328 -2.2465232741 6.0547660442
H 2.2431353016 1.8096430878 4.4744019075
H 2.5171066110 2.7790871385 5.9213308364
H 3.1773492614 1.1459430622 5.8273344486
H -0.9950077388 1.9368091531 6.6410052738
H 0.1735075755 3.2212296087 6.3252981816
H -0.4618439795 2.2709431594 4.9832077240
H 1.4655095827 2.0215683228 7.9914591126
C 2.2156468106 -5.5734041954 0.7860043024
C 3.4967992156 -4.8636547783 0.2689329015
C 2.5564139336 -6.1886340509 2.1617743574
C 1.7920828270 -6.7299482974 -0.2173198926
C 0.4763658616 -7.4060514511 0.2052096467
C 1.7091782090 -6.2999560182 -1.6964248139
O 2.8692940724 -7.6706906108 -0.1152930738
H 3.8742932057 -4.1727692120 1.0305135895
H 4.2683895574 -5.6109938875 0.0668033911
H 3.3284305198 -4.2967846833 -0.6529307131
H 1.6841850337 -6.6406774412 2.6427014826
H 3.3136766397 -6.9636741635 2.0423718671
H 2.9539477192 -5.4216895624 2.8350793894
H -0.3706239137 -6.7104237484 0.1971334511
H 0.2373990589 -8.2173242941 -0.4924295634
H 0.5581165858 -7.8417988620 1.2034617718
H 2.6594014772 -5.8896364489 -2.0462279538
H 1.4943537096 -7.1855738111 -2.3062168633
H 0.9104410045 -5.5830100222 -1.9089272668
H 2.6530904579 -8.4408089611 -0.6651527631
O -2.3963342595 -0.2829556715 -0.0547138786
C -2.9233444896 -0.8457723644 -1.2844965541
C -4.1280873983 -0.0031954254 -1.5950032484
C -4.3781686225 0.8780723365 -0.6208873155
C -3.3193827523 0.7400645411 0.4502089286
H -2.7433958310 1.6558994871 0.5959216624
H -3.7015344840 0.3947239193 1.4150434034
H -4.6912462194 -0.1477008982 -2.5079222354
H -3.1778427628 -1.9019326492 -1.1046304220
N -0.5621839620 -0.4891145940 -2.0107458247
C -1.8066499955 -0.7784128279 -2.2871104095
O -2.0015065909 -1.0705510480 -3.5672026949
C -0.7600097779 -0.9554904605 -4.2045967349
C 0.1182373481 -0.5942338728 -3.2299375887
H 1.1763382296 -0.4051977422 -3.2926132060
C -0.7885711503 -1.2478536265 -5.6841743700
C -1.3432404377 -2.6883214056 -5.8732131991
C -1.7861591168 -0.2574582250 -6.3484105153
C 0.6365091687 -1.1179289548 -6.3620401602
C 1.1964600832 0.3165998038 -6.3173244296
C 1.6683848547 -2.1191582658 -5.8086419440
O 0.3672403677 -1.4596021631 -7.7257509869
H -2.3782696608 -2.7447389948 -5.5251612973
H -1.3185096321 -2.9442138163 -6.9336321151
H -0.7596002996 -3.4321935599 -5.3226447389
H -1.5466402987 0.7854646802 -6.1214127470
H -1.7544178948 -0.3948081572 -7.4304787243
H -2.8053583358 -0.4536342296 -6.0039629790
H 1.3163674670 0.7013195862 -5.2993343064
H 2.1848877443 0.3380451230 -6.7911983004
H 0.5509126310 1.0020576858 -6.8705943234
H 1.3294505242 -3.1480761875 -5.9478250199
H 2.6107595083 -2.0055512193 -6.3571340116
H 1.8942499534 -1.9682780380 -4.7479079789
H 1.1942589910 -1.3833435547 -8.2282061373
C -5.4836063510 1.9283935905 -0.5563621886
C -4.9575188234 3.1691075013 0.2106499558
C -5.8407700022 2.3986173829 -1.9852085151
C -6.7815257667 1.3570619257 0.1689361906
C -7.5328458208 0.3225346525 -0.6851768254
C -6.4809888640 0.7424128564 1.5487223755
O -7.5964893849 2.5200482291 0.3442160148
H -4.0644569492 3.5674236239 -0.2865041428
H -5.7212553613 3.9469416928 0.2157127654
H -4.7039066629 2.9516221661 1.2535889460
H -6.1398313331 1.5796046117 -2.6442335974
H -6.6691203957 3.1089106729 -1.9373341883
H -4.9815735835 2.8992953063 -2.4443269469
H -6.9010287072 -0.5327740647 -0.9465598406
H -8.3856968691 -0.0713563841 -0.1190788131
H -7.9230690187 0.7680974111 -1.6028533764
H -5.9403486586 1.4359267673 2.1991893592
H -7.4251196572 0.5012249326 2.0494918046
H -5.9177585301 -0.1943240770 1.4656498447
H -8.4793913236 2.2333482018 0.6281760288
