124
# extracted from Terachem optimization
Cr 0.0776228479 -0.0057013743 -0.0671192091
O 0.5768995532 1.9580469944 -0.3249629876
C 1.9703960774 2.3714505388 -0.1248114189
C 2.0820771501 3.4254568759 0.9407237800
C 1.1071835556 4.3553280015 1.0514810905
C -0.0335159287 4.2234716391 0.1302810779
C -0.2915368562 3.0740711374 -0.4981179851
H 2.9979424785 3.4548296270 1.5199873896
H -1.1190177964 2.8482507574 -1.1547108063
H -0.6748669021 5.0745572028 -0.0566496523
H 2.3130757558 2.7508633013 -1.1028270592
N 2.0885081854 -0.0346606216 0.2267171734
C 2.7214581115 1.1034360887 0.1998472870
O 3.9850480743 1.3194425078 0.4289674915
C 4.8758226895 0.1992113483 0.8416058920
C 4.3520723490 -1.0755991347 0.1937090171
C 2.8690234193 -1.2645775348 0.5121654753
H 4.7652166157 0.1312451603 1.9277776048
H 4.5148972528 -1.0319742863 -0.8898482889
H 4.9163540303 -1.9245602184 0.5880639285
H 2.7174456454 -1.5280864247 1.5643170401
H 2.4508424837 -2.0756940242 -0.0863960580
C 6.3024196266 0.5592430364 0.5031330988
C 6.6471838302 1.6643549697 -0.1589863612
C 7.3167769664 -0.4584934978 1.0003029985
N 6.9504621994 -0.9498591491 2.3386283496
H 7.6918933737 1.8893108638 -0.3516253188
H 5.9224489249 2.3808472674 -0.5294164745
H 7.3189889266 -1.3260101011 0.3260960540
H 8.3200276489 -0.0150493690 0.9325161366
H 7.4971163086 -1.7809881083 2.5573207262
H 7.2106978134 -0.2580364648 3.0414443147
C 1.1377980889 5.4543976082 2.0504534718
C 1.7554588042 5.3024709026 3.2317887340
C 0.4312822640 6.7491310579 1.6916325549
N 0.7543602866 7.1498777110 0.3182413746
H 1.8166424316 6.1217281729 3.9416986178
H 2.2065864744 4.3640454772 3.5422056541
H -0.6565249756 6.5942307235 1.7413438941
H 0.6639821791 7.4990143105 2.4619849127
H 0.1899066669 7.9537691748 0.0476608247
H 1.7253944782 7.4546042606 0.2612925249
O -0.1880000093 -1.9743729741 0.3821528075
C -0.5647542769 -2.3644583847 1.7459155368
C 0.3444122347 -3.4422400255 2.2658363148
C 0.7691872204 -4.4048042899 1.4163242402
C 0.3532270402 -4.2693857982 0.0098282629
C -0.0792857532 -3.1038304097 -0.4769503670
H 0.5363101413 -3.4680619022 3.3326088653
H -0.3751848546 -2.8835030601 -1.4909621820
H 0.3831225408 -5.1274878141 -0.6488741504
H -1.6064023709 -2.7241753649 1.6775562857
N -0.3384506388 0.0480065875 1.9454956535
C -0.5552273924 -1.0852741080 2.5482034884
O -0.8092992319 -1.2863536653 3.8095289803
C -0.8468977095 -0.1398850085 4.7607440666
C -1.2942578576 1.0972669303 3.9902306731
C -0.4345726750 1.2967054943 2.7418233786
H 0.1863477600 -0.0115519912 5.0954030407
H -2.3522937744 0.9974253166 3.7189605700
H -1.1952375983 1.9672672118 4.6447097888
H 0.5793829532 1.6178508889 3.0026272968
H -0.8673564269 2.0676967810 2.0998845710
C -1.7181690659 -0.5119721963 5.9364620607
C -2.4326221838 -1.6365676602 5.9965461990
C -1.7014378637 0.5193076498 7.0527736145
N -0.3408439579 1.0394852079 7.2627183348
H -3.0243426365 -1.8692766767 6.8767552734
H -2.4572818200 -2.3625046029 5.1915090512
H -2.3334232653 1.3720279351 6.7687473246
H -2.1669201744 0.0764642346 7.9445168002
H -0.3805192643 1.8736731701 7.8457151629
H 0.2086469271 0.3615479780 7.7906657664
C 1.6220662436 -5.5465502813 1.8339154346
C 2.5254193609 -5.4169286186 2.8167667006
C 1.4263909099 -6.8598931408 1.0980426687
N -0.0033708996 -7.1312738323 0.9142142535
H 3.1129118178 -6.2652463190 3.1549469496
H 2.7248478111 -4.4677212950 3.3063421709
H 1.8790403629 -6.7877141751 0.0981977061
H 1.9866494720 -7.6457804044 1.6255021551
H -0.1312159491 -7.9438693188 0.3128421615
H -0.4313274874 -7.3718691390 1.8074881237
O -1.8752561893 0.3218992118 -0.6531833947
C -2.2498503789 0.1340736603 -2.0587694115
C -2.9714725095 1.3464303564 -2.5789137388
C -3.8449144608 1.9814780304 -1.7630636623
C -3.9542749910 1.4661749385 -0.3869133653
C -2.9967624253 0.6994312988 0.1380201687
H -2.8499110929 1.5959478798 -3.6267933038
H -2.9319579998 0.3086618197 1.1423770746
H -4.8208495360 1.7081817425 0.2138814826
H -2.9018601005 -0.7569947246 -2.0823630434
N 0.1342584507 -0.3694709554 -2.1053155292
C -0.9634991051 -0.1906271956 -2.7829090252
O -1.1323865413 -0.2758875210 -4.0720217779
C 0.0187686697 -0.5719421163 -4.9703444672
C 1.0306291283 -1.3998235244 -4.1895474466
C 1.3620501625 -0.7211862350 -2.8603895698
H 0.4499307893 0.4045679137 -5.2092945263
H 0.6338090430 -2.4082362862 -4.0198372504
H 1.9380391630 -1.4881367030 -4.7923978410
H 1.9407957793 0.1959425278 -3.0208049483
H 1.9635580126 -1.3839316200 -2.2353517553
C -0.5075223457 -1.2192013266 -6.2302963713
C -1.7969468770 -1.4927510172 -6.4343144799
C 0.5723327740 -1.5213442610 -7.2557213577
N 1.5447706376 -0.4193072278 -7.3280831521
H -2.1257505036 -1.9327752406 -7.3709909462
H -2.5671257337 -1.2941798608 -5.6974143838
H 1.1242208681 -2.4193818914 -6.9453609710
H 0.0885896373 -1.7722255117 -8.2101549750
H 2.3693961162 -0.7218912342 -7.8436993161
H 1.1521652179 0.3537121672 -7.8649980544
C -4.6540751252 3.1542961209 -2.1829893660
C -4.1936482141 4.0282564947 -3.0906570268
C -6.0177682181 3.3222943427 -1.5376907843
N -6.7217923204 2.0362604862 -1.4895362887
H -4.8057539616 4.8580139369 -3.4310806063
H -3.1950152781 3.9628179486 -3.5135362600
H -5.8900157212 3.6664660267 -0.5009454701
H -6.5547962958 4.1284647647 -2.0586175657
H -7.5801692037 2.1277971667 -0.9483870966
H -7.0073495188 1.7580073445 -2.4275504508
