127
# extracted from Terachem optimization
Cr -0.0433447582 -0.5738409915 -0.1091784611
O 0.2499072728 1.6059793232 -0.0749931948
C 1.6212207939 1.9744373036 -0.3316277277
O 1.7925789446 3.2140481763 0.2662543879
C 0.6027828170 3.9104969290 -0.1817030142
C -0.4966562040 2.8640036964 0.0378652992
H -0.9438218371 2.9181007806 1.0271594694
H -1.2710250908 2.8947051933 -0.7240115276
H 0.7197307257 4.1302412797 -1.2482307035
H 1.7564901311 2.0642277542 -1.4208890656
N 2.0440470060 -0.3367836640 0.1461970587
C 2.5084803054 0.8657860604 0.1860858068
O 3.7080875463 1.2813415843 0.5505694023
C 4.7129897622 0.2937145695 0.9898663857
C 4.4187194869 -1.0457372745 0.3408693286
C 2.9541667625 -1.4283873051 0.5525638285
H 4.6266123116 0.2458877789 2.0771998972
H 4.6365646238 -0.9785528842 -0.7300665527
H 5.0803606272 -1.8040259325 0.7659881371
H 2.7500198743 -1.6708929819 1.6032484084
H 2.7023756986 -2.3199517677 -0.0231246441
C 6.0711288854 0.9526190684 0.6324126803
O 6.2194669062 1.0061741465 -0.7655401526
O 6.1083098698 2.2436355363 1.1794471917
C 7.2668131997 0.2261555456 1.2947459497
O 7.0105313340 -0.1076353083 2.6378756291
O 7.4751583703 -0.9516618384 0.5637636399
H 6.8776140304 0.3340134759 -1.0170276209
H 5.4192121053 2.7684393806 0.7393132455
H 8.1291626687 0.9053478939 1.2187807871
H 7.2179588081 0.6671210854 3.1860324633
H 8.2692865169 -1.3897907016 0.9128331713
C 0.4643936150 5.2444504692 0.5573089577
O 0.0965064026 4.9639414072 1.8804626175
O 1.6640473298 5.9754848897 0.4784461293
C -0.5619375853 6.1616029634 -0.1575931723
O -0.1469094919 6.4877802986 -1.4735017549
O -1.7818200456 5.4893290390 -0.2547082179
H 0.1211719007 5.7983124916 2.3802284577
H 2.3864573689 5.4055200169 0.7948019834
H -0.6535221678 7.0857148802 0.4384349153
H 0.7082358063 6.9493811154 -1.4033324777
H -2.3759355436 6.0576846183 -0.7738473964
O -0.3291837614 -2.5963010821 0.0310606767
C -0.8384469631 -3.0482008074 1.2981567991
O -0.0788202634 -4.1642992701 1.6197785376
C 0.1104661377 -4.8898772796 0.3837294572
C 0.1090072644 -3.7883312977 -0.7001138900
H 1.0945337537 -3.5852361387 -1.1086261785
H -0.6028425959 -3.9894485618 -1.5011356298
H -0.7172303627 -5.5918845914 0.2449173113
H -1.9048510787 -3.3005404715 1.1800777381
N -0.3538540825 -0.7564017781 1.9361139116
C -0.6635391472 -1.9458944049 2.3280044547
O -0.8723726036 -2.3759309170 3.5556558036
C -0.8758558613 -1.4134588076 4.6797363959
C -1.1208342899 -0.0060398758 4.1638313438
C -0.1992188833 0.2773929977 2.9774104927
H 0.1077893172 -1.5045717145 5.1430806128
H -2.1672289728 0.0973597118 3.8587388699
H -0.9421269359 0.7018029513 4.9764433990
H 0.8532758348 0.2994991965 3.2885903550
H -0.4162175271 1.2416135547 2.5152416916
C -1.9346485962 -1.9886272785 5.6539583560
O -3.1981303627 -1.9653841874 5.0355465413
O -1.5725294250 -3.2996073283 5.9963601522
C -1.9593515039 -1.2311849986 7.0067520916
O -0.6688263807 -0.8875317768 7.4533140301
O -2.6949465477 -0.0568205926 6.7903418246
H -3.7292339837 -1.2830845357 5.4836176093
H -1.6813239423 -3.8533477952 5.2055520626
H -2.4581073153 -1.8928977347 7.7298951573
H -0.3228683420 -1.6206769164 7.9881039132
H -2.7795095539 0.4103224412 7.6383287120
C 1.4053134866 -5.7076213340 0.5173140902
O 2.4810349644 -4.7953007795 0.4949313257
O 1.3980692698 -6.4673589725 1.6960858080
C 1.5069345411 -6.7553192725 -0.6161607196
O 0.4678753501 -7.6974588254 -0.5490172616
O 1.3837474538 -6.0717746968 -1.8285116951
H 3.2984036631 -5.3103913546 0.6071980405
H 1.2301999749 -5.8651847201 2.4415574110
H 2.4894123097 -7.2542514763 -0.5258152426
H 0.5920149328 -8.2291812004 0.2560874328
H 1.2839960135 -6.7423163973 -2.5257357578
O -2.2078287533 -0.5066887508 -0.4251516766
C -2.5675817653 -0.1376070299 -1.7633302192
O -3.4053983778 0.9676331139 -1.6476816194
C -4.2069206758 0.7557709692 -0.4675927947
C -3.2749256064 -0.0426262217 0.4616643653
H -2.8266853728 0.5815199020 1.2296646750
H -3.7673560329 -0.9083085976 0.9054029813
H -5.1061715724 0.1908514749 -0.7306232244
H -3.0851694822 -0.9863655236 -2.2393175845
N -0.1620078410 -0.2605748196 -2.2173876208
C -1.3114787759 0.2279149365 -2.5440926347
O -1.5506997185 1.0927724258 -3.5186636000
C -0.3556802091 1.8599768066 -3.9024432139
C 0.6818501764 0.8475644184 -4.3465294769
C 0.9718804707 -0.0881417163 -3.1565644066
H -0.0376687196 2.3801825194 -2.9953520128
H 0.2795874961 0.2946633952 -5.2012513093
H 1.5964370226 1.3475908585 -4.6741155450
H 1.8257170808 0.2533766317 -2.5679119158
H 1.2301162155 -1.0932248548 -3.5084516008
C -0.8288589658 2.9501288030 -4.8939052998
O -1.0626219520 2.4134325484 -6.1670442936
O -2.0087512968 3.5282860785 -4.3993445023
C 0.1865719962 4.1239978260 -4.9547914878
O 0.5988048089 4.5576176056 -3.6771513103
O 1.3001669737 3.6274840987 -5.6447233070
H -0.2664742791 2.5628616093 -6.7073593203
H -2.7238477567 2.8899338504 -4.5601261037
H -0.3050838790 4.9419075173 -5.5008513433
H -0.0318721299 5.2057794303 -3.3119321894
H 1.9221240748 4.3576204085 -5.7994063448
C -4.6325911928 2.1466261831 0.0396038128
O -3.4880165108 2.7469096149 0.6060707259
O -5.1507201398 2.9208761768 -1.0085173578
C -5.7865032808 2.0282391768 1.0614866819
O -6.9307163410 1.4563106326 0.4783719088
O -5.3540375688 1.1696719100 2.0765152993
H -3.6461738317 3.7041612809 0.6720854590
H -4.5300634906 2.8576191098 -1.7560056661
H -6.0067666531 3.0396139086 1.4467609439
H -7.2797501101 2.0820438805 -0.1793206288
H -6.1384080154 0.9421294589 2.6041122819
