154
# extracted from Terachem optimization
Cr -0.0104495231 -0.2019691146 -0.2646854809
O 0.1745137047 1.7843054171 -0.4898723458
C 1.5474869879 2.3190762208 -0.4464774433
C 1.6834895383 3.3290777503 0.6662775157
C 0.6460146623 4.1301753334 0.9613580765
C -0.6009662550 3.9278228952 0.2146709188
C -0.8260644455 2.7929338487 -0.4499775977
H 2.6303364289 3.4162368449 1.1859569432
H -1.7278691618 2.5026776202 -0.9687989288
H -1.3644732164 4.6962886869 0.1948722062
H 1.7076599897 2.7881113901 -1.4315798690
N 1.9698674920 -0.0463878561 -0.1416946117
C 2.4831031754 1.1472391894 -0.2859902086
C 3.8985180990 1.4131293825 -0.3132444363
C 4.7818646478 0.4011336669 -0.5191670068
C 4.2454007810 -1.0028679334 -0.6020950240
C 2.9224323343 -1.1471423300 0.1459881585
H 4.1592502103 -1.2758303877 -1.6625306287
H 4.9540102256 -1.7155325502 -0.1761977737
H 4.2493230529 2.4372159982 -0.2648868444
H 3.0945579317 -1.1337123027 1.2310086044
H 2.4447573510 -2.0935013641 -0.0966011721
C 6.2812173176 0.6896165537 -0.6833561648
N 6.5024813364 2.1361361550 -0.5820029561
N 6.9875047646 -0.0592635463 0.3466361004
C 6.8088585824 0.1190767600 -2.0637559131
O 6.6749265949 -1.2759959670 -2.1581754700
O 5.9734895569 0.6963691026 -3.0368223685
N 8.2116114918 0.4392309965 -2.1740281159
H 7.4753657413 2.3165992061 -0.3451296778
H 6.3116477935 2.5936731250 -1.4738247394
H 7.9903501999 0.0333984753 0.1695889066
H 6.7949726106 0.3320307664 1.2675266138
H 7.1522690251 -1.6559886909 -1.3978700511
H 6.3077690893 0.4246003244 -3.9095569954
H 8.6712579353 -0.1768374613 -2.8405417933
H 8.3772402397 1.4070408586 -2.4347562136
C 0.7101879458 5.1563768321 2.1014131001
N -0.4590492133 4.9162220237 2.9649213617
N 1.9569524095 4.9758253271 2.8327795437
C 0.7667039430 6.6186780508 1.5092420251
O 0.9521996202 7.4373482922 2.6508005643
O 1.8217002660 6.7386800926 0.5997500206
N -0.4461882440 6.9473184554 0.7845037585
H -0.3805593505 5.5323168008 3.7751243977
H -1.3090694745 5.2072193285 2.4797852354
H 2.0787536318 5.7656787733 3.4653116384
H 1.9032811614 4.1313509327 3.4003061636
H 1.2015435545 8.3253109944 2.3383714690
H 2.6049173920 6.3537207336 1.0348581363
H -1.0127986956 7.5818243134 1.3414765972
H -0.2009669688 7.4197480705 -0.0837340755
O -0.1709214306 -2.2311104611 0.0989957695
C -0.3433951876 -2.6547448981 1.4964568203
C 0.8138950926 -3.5226392305 1.9271288462
C 1.3568525652 -4.3704447453 1.0368494924
C 0.7977678157 -4.3662295168 -0.3211076396
C 0.0852886056 -3.3254513298 -0.7612808463
H 1.1672493621 -3.4646691131 2.9499294275
H -0.3377882361 -3.1906256217 -1.7457074611
H 0.9605733790 -5.2230213701 -0.9655137872
H -1.2901421756 -3.2204402665 1.5147380566
N -0.3457942514 -0.2468461781 1.7531415846
C -0.4932602534 -1.4088902810 2.3319871610
C -0.8213616569 -1.5873879257 3.7250047373
C -1.3360061930 -0.5537992073 4.4391866370
C -1.4121811560 0.7945908301 3.7781700228
C -0.3890384700 0.9345568476 2.6525893221
H -2.4391872971 0.9538758370 3.4236222080
H -1.2320347466 1.5851626534 4.5113100593
H -0.7556694006 -2.5756913312 4.1640593804
H 0.6221515782 1.0519219287 3.0663000272
H -0.6113437827 1.8216640305 2.0647186656
C -1.8638180946 -0.7590153832 5.8636333300
N -1.5602585614 -2.1286419578 6.2956286088
N -1.2627734074 0.2513036501 6.7213975387
C -3.4254497816 -0.4788587164 5.9061296131
O -3.7518103961 0.8357390238 5.5317309091
O -3.9717828792 -1.3473953865 4.9433756592
N -3.8814970332 -0.6804702917 7.2592728397
H -1.5408189579 -2.1738578040 7.3115724974
H -2.2760414176 -2.7775581853 5.9687678526
H -1.7099454237 0.1933326355 7.6386707190
H -0.2669118191 0.0735900909 6.8431153131
H -3.2402561622 1.4270417023 6.1143970193
H -4.9407467295 -1.2731688469 4.9971264221
H -4.7610576892 -0.1961176029 7.4215577419
H -3.9792334816 -1.6613888627 7.5046851880
C 2.5826358418 -5.2334617633 1.3681767001
N 3.6115325578 -4.9100614972 0.3614109410
N 3.0375696389 -4.9172798184 2.7139833127
C 2.1888295340 -6.7611664464 1.3970849243
O 3.3750765721 -7.4094744078 1.8207393059
O 1.1264657339 -6.9750840020 2.2790669414
N 1.7456111630 -7.2260329039 0.0944969281
H 4.4653794789 -5.4085940463 0.6169181099
H 3.3350431136 -5.2893504911 -0.5457027538
H 3.7272714071 -5.6132913248 2.9948959143
H 3.4969487067 -4.0081756358 2.7207552204
H 3.1361672336 -8.3170003872 2.0806898389
H 1.3402218052 -6.4851042333 3.0949661270
H 2.4769141891 -7.7919766972 -0.3289713242
H 0.9213257070 -7.8125941831 0.2138910524
O -2.1119964475 -0.2214590749 -0.6067239115
C -2.5355626950 -0.3605903548 -2.0009473264
C -3.2781251179 0.8789165662 -2.4469468961
C -4.0709332957 1.5128469068 -1.5646297144
C -4.1330096618 0.9699883123 -0.2007677832
C -3.1706380277 0.1594394428 0.2457511288
H -3.1821754174 1.2161435247 -3.4725139933
H -3.0741498950 -0.2565756796 1.2385869029
H -4.9635615368 1.2335816428 0.4437676931
H -3.1937701836 -1.2453830185 -2.0289726760
N -0.1254259637 -0.5352742003 -2.2895052770
C -1.3077854263 -0.6252367183 -2.8390537052
C -1.5330319255 -0.9908752703 -4.2176718103
C -0.5493482134 -1.6008891827 -4.9266337901
C 0.8159345572 -1.7074453624 -4.3028588366
C 1.0214911529 -0.6458524821 -3.2249640457
H 0.9537874557 -2.7262954433 -3.9186179215
H 1.5787958897 -1.5805952508 -5.0760986183
H -2.5261436684 -0.8893882225 -4.6392495878
H 1.1489161056 0.3429856550 -3.6884917378
H 1.9153292018 -0.8559486214 -2.6397397547
C -0.8185194779 -2.2020002940 -6.3107853400
N -2.1840016941 -1.8589663665 -6.7250283580
N 0.1926565938 -1.7006241526 -7.2293082205
C -0.6148650160 -3.7745982866 -6.2592442195
O 0.6937527832 -4.1459140578 -5.9023175436
O -1.4747067624 -4.2106172614 -5.2333082891
N -0.8827639364 -4.3077145155 -7.5709644170
H -2.2605833491 -1.9035893243 -7.7382153716
H -2.8589830414 -2.5135162325 -6.3300710268
H 0.0893393381 -2.1982173219 -8.1158039792
H 0.0526446291 -0.7071757980 -7.4078995488
H 1.2880192962 -3.7530967085 -6.5678417001
H -1.4560680977 -5.1837422860 -5.2285518060
H -0.4651608257 -5.2286284730 -7.6816577686
H -1.8741352505 -4.3525619382 -7.7876237575
C -4.7907486414 2.8243853564 -1.9089785106
N -4.3612197490 3.8151935001 -0.9025615507
N -4.4185069288 3.2370333871 -3.2543612405
C -6.3556076747 2.6170126901 -1.9447639612
O -6.8458705256 3.8819815420 -2.3579731166
O -6.6988244507 1.6027300072 -2.8412758298
N -6.8811207694 2.2281756176 -0.6485924586
H -4.7678243077 4.7157750086 -1.1599116902
H -4.7695311986 3.5775237094 0.0029226655
H -5.0245361704 4.0072659387 -3.5344815850
H -3.4599925006 3.5826216898 -3.2615916246
H -7.7730076570 3.7620971391 -2.6306128834
H -6.1766006025 1.7583649792 -3.6506028249
H -7.3846636188 3.0105422418 -0.2383549310
H -7.5363904834 1.4583314029 -0.7718117020
