139
# extracted from Terachem optimization
Cr 0.0348503623 0.2009413649 0.0549201301
N 0.0634586762 2.2868114362 -0.1151948309
C 1.2073386600 2.8951648708 -0.1003380994
S 1.2307611902 4.6286419618 -0.2715961797
C -0.5822850516 4.5787595062 -0.7674154971
C -1.0683223278 3.2342120815 -0.1883771502
H -1.4624795652 3.3683265128 0.8265874983
H -1.8583245782 2.8146841596 -0.8143838727
H -0.5630875519 4.5127671597 -1.8575691403
O 2.1576358447 0.7163564424 0.0521856280
C 2.4855802840 2.1266541227 0.0705934857
S 3.3476297268 2.6101530718 1.6051732516
C 4.8690379068 1.6144652922 1.2383550365
C 4.4392802757 0.2467451856 0.7575970243
C 3.2545460653 -0.1268234736 0.2787472100
H 5.3001767722 1.4715340440 2.2378793069
H 3.0069552383 -1.1418204158 0.0038935504
H 5.1733680862 -0.5482118974 0.8416922948
H 3.1638147097 2.3062926484 -0.7711039052
C 5.9274070118 2.3047345103 0.3638821264
C 5.7496884929 3.5251220064 -0.1507788110
C 7.2548851744 1.5667002338 0.1412660922
C 7.8064728706 0.8839645141 1.4066781893
C 7.2217097761 0.5984118148 -1.0604116454
H 6.5367310891 3.9981930989 -0.7310928329
H 4.8502469302 4.1114517385 0.0033258555
H 7.9710692082 2.3541243463 -0.1222020972
H 7.2170141215 0.0099890211 1.7128167472
H 8.8241123271 0.5270993226 1.2192872031
H 7.8521903723 1.5782653539 2.2531571293
H 6.8875574839 1.1121891959 -1.9677778160
H 8.2267988819 0.2045640950 -1.2463639866
H 6.5611332029 -0.2595131697 -0.8953661391
C -1.3741825578 5.8025109612 -0.3292077145
C -1.4132161553 6.1764709833 0.9543495199
C -2.1165726021 6.5637603117 -1.4199987311
C -1.1542311261 7.1780277478 -2.4559675688
C -3.1928324367 5.6965088115 -2.1028983325
H -1.9910821553 7.0396958441 1.2707130028
H -0.8579986939 5.6604378461 1.7344135250
H -2.6306246846 7.3933853030 -0.9203078813
H -0.6165320529 6.4118624124 -3.0293671731
H -1.7166735059 7.7807249087 -3.1766009247
H -0.4140171473 7.8287700865 -1.9787547327
H -3.9266653551 5.3286366400 -1.3774212083
H -3.7288724426 6.2839107042 -2.8555233794
H -2.7560801360 4.8303775282 -2.6179594471
N 0.3598657195 -1.8666257199 0.2405248963
C 0.4304615285 -2.4706889849 1.3851360011
S 0.6206086544 -4.2093058092 1.3799567673
C 0.1996963371 -4.2345336815 -0.4466633228
C 0.5338644290 -2.7981531507 -0.8965581257
H 1.5764620855 -2.7369869275 -1.2342907292
H -0.1033872360 -2.4835197412 -1.7271310350
H -0.8824612945 -4.3843960598 -0.4796028300
O 0.0989379981 -0.3666436994 2.4948757881
C 0.3453003364 -1.7570155461 2.7105351448
S 1.8635546499 -2.0734910700 3.6938100352
C 1.1997945343 -1.2718733206 5.2304481182
C 0.6051251842 0.0628023846 4.8369562970
C 0.1650062551 0.4306550707 3.6338688806
H 2.1184899437 -1.0553573728 5.7914270058
H -0.1869311487 1.4279939592 3.4030716393
H 0.5754307578 0.8299375856 5.6040401357
H -0.4935573600 -2.1636624209 3.2899288384
C 0.3072798929 -2.1566516212 6.1148461541
C 0.0298249525 -3.4286410648 5.8111525177
C -0.2110430201 -1.5561431825 7.4280132446
C 0.8684542074 -0.7968349961 8.2220014764
C -1.4928910088 -0.7136556234 7.2599737530
H -0.5679384938 -4.0382922468 6.4828135797
H 0.4045066373 -3.9229394910 4.9211319281
H -0.4927944888 -2.4225402533 8.0383421990
H 1.1746412050 0.1392084891 7.7378816747
H 0.4820829636 -0.5297043078 9.2107970140
H 1.7632132474 -1.4110857063 8.3719457084
H -2.2676064797 -1.2807773667 6.7326785838
H -1.8868962573 -0.4396772163 8.2446773861
H -1.3181150178 0.2149152109 6.7075446151
C 0.8942970779 -5.3357941638 -1.2356386850
C 2.2203862025 -5.4993472979 -1.1801913045
C 0.0002970612 -6.2275102468 -2.0891625063
C -0.9238447687 -7.1040533794 -1.2202711550
C -0.8021191487 -5.4300760939 -3.1348697213
H 2.7160639536 -6.2713987771 -1.7610955684
H 2.8612733838 -4.8972238918 -0.5402312377
H 0.6703535585 -6.8994184649 -2.6386032642
H -1.6268773529 -6.5037181920 -0.6279960673
H -1.5217875365 -7.7666534597 -1.8545929007
H -0.3448129619 -7.7263674460 -0.5308405648
H -0.1428028650 -4.8366441690 -3.7784479562
H -1.3693504731 -6.1128722953 -3.7759312365
H -1.5324500174 -4.7525264784 -2.6706185572
N -2.0291831263 -0.0675264817 -0.1741004822
C -2.6419363083 -0.1458528671 -1.3129826282
S -4.3625858715 -0.4730195230 -1.2896583713
C -4.2366803847 -0.9176638871 0.5244288055
C -2.9678712256 -0.1650777983 0.9663624035
H -3.2252852776 0.8558911385 1.2767157794
H -2.4812904236 -0.6593731926 1.8098077575
H -4.0476327007 -1.9948672099 0.5343069071
O -0.5508288831 0.1138078654 -2.4627903773
C -1.9605303303 0.0478453024 -2.6447430962
S -2.6309376355 1.5504726440 -3.4742663728
C -1.7464696328 1.2346637379 -5.0759226485
C -0.3139469570 0.8600269397 -4.7650629760
C 0.1752540713 0.4003681385 -3.6126413602
H -1.7201656428 2.2358470818 -5.5265004118
H 1.2265633667 0.2043681202 -3.4414066484
H 0.4109553560 1.0133351318 -5.5580492472
H -2.1843232127 -0.7989337143 -3.3049155034
C -2.4679184060 0.2995760973 -6.0583436634
C -3.6417373730 -0.2746980415 -5.7781910870
C -1.8241756994 0.0863101536 -7.4354358002
C -1.2785583926 1.3786360460 -8.0712313196
C -0.7766593432 -1.0469033040 -7.4531940344
H -4.1399718789 -0.8968717457 -6.5162607248
H -4.1665364779 -0.1326561521 -4.8395330710
H -2.6463584081 -0.2510742553 -8.0780292232
H -0.3851871938 1.7614081716 -7.5617000048
H -0.9909368630 1.1861456868 -9.1096393021
H -2.0332526451 2.1729563970 -8.0798792599
H -1.2013653539 -1.9761712342 -7.0591546796
H -0.4515417963 -1.2345540263 -8.4823469903
H 0.1168762264 -0.8097477260 -6.8661907552
C -5.4783625646 -0.6043377440 1.3464549701
C -6.1134519406 0.5673937864 1.2364983052
C -5.9442920846 -1.6922541917 2.3066990051
C -6.5077473597 -2.9166218983 1.5568711560
C -4.8503917472 -2.1088759541 3.3085677681
H -6.9816112149 0.7930014619 1.8485482988
H -5.8151540549 1.3340343166 0.5257373202
H -6.7683261936 -1.2584391846 2.8858852000
H -5.7404269208 -3.4298786262 0.9625517146
H -6.9002571824 -3.6461696724 2.2729037396
H -7.3223316347 -2.6295664417 0.8848063036
H -4.4831313749 -1.2511581650 3.8839365528
H -5.2487733772 -2.8412648708 4.0182002887
H -3.9942696274 -2.5839630383 2.8092526124
