163
# extracted from Terachem optimization
Fe -0.1311855836 0.0219903201 -0.1113570366
N -0.0333695022 2.2196317112 -0.5304455129
C -0.9413627361 2.8516421053 -1.2002711598
O -0.9480034834 4.1184432720 -1.5541185732
C 0.0900462741 5.0758870550 -1.0806935412
C 1.1879644413 4.3133083091 -0.3940470751
C 1.1022342978 3.0003170281 -0.1646301338
H 0.4636377911 5.5155196955 -2.0107986022
H -1.8152108237 2.3206880597 -1.5648849097
H 1.9020807129 2.4367499172 0.2977903234
H 2.0589211987 4.8754080513 -0.0808320222
C -0.6133265933 6.1960113100 -0.2660156613
C -1.6935294393 6.8582538651 -1.1493888704
C -1.2841777743 5.6123720882 0.9928818818
C 0.4271598515 7.2890913853 0.1603336130
O 1.3514623166 6.8068641650 1.1441069678
C 1.2832966666 7.8745862379 -0.9632192984
H -2.4837018766 6.1482989773 -1.4083065477
H -2.1585597648 7.6917966535 -0.6124116102
H -1.2785139802 7.2506004645 -2.0829313067
H -0.5782703933 5.0594278209 1.6210437016
H -1.7243057119 6.4157166649 1.5954274501
H -2.1036569028 4.9369832997 0.7231663788
H -0.1684567678 8.1053733283 0.5951624477
H 0.9300250115 6.8537709561 2.0151546475
H 0.6780914234 8.2708038188 -1.7829924798
H 1.8854370144 8.6926916403 -0.5593754185
H 1.9798730843 7.1320044235 -1.3676002488
N 2.0596668836 -0.1392847871 0.4638752719
C 2.4148623070 -0.6050585558 1.6183882902
O 3.6363352686 -0.8399581782 2.0493781443
C 4.8167043877 -0.3159830422 1.3070388962
C 4.4137233289 -0.0472213466 -0.1162848632
C 3.1269573976 0.0500135383 -0.4605781341
H 5.0636011346 0.6181360969 1.8273802774
H 1.6610018111 -0.8836158980 2.3479604725
H 2.8140848765 0.2521366852 -1.4760306254
H 5.2119866048 0.0576746187 -0.8420840331
C 5.9824144161 -1.3178507303 1.5143360025
C 6.2225355647 -1.5069415331 3.0276805145
C 5.6325378540 -2.6819281372 0.8888461774
C 7.3018744305 -0.7673517092 0.8613100476
O 7.2575497153 -0.7770127768 -0.5709616486
C 7.6985302037 0.6542372630 1.2573748594
H 5.3675329539 -1.9949569774 3.5036383260
H 7.1003624903 -2.1403012804 3.1948136919
H 6.3946037941 -0.5560781493 3.5429884494
H 5.4029982404 -2.5985338661 -0.1787070062
H 6.4681584119 -3.3819714211 1.0061721557
H 4.7645809293 -3.1271141526 1.3852665527
H 8.0944579196 -1.4510398293 1.1988989730
H 7.4245143413 -1.6801303169 -0.8806202062
H 7.7464436223 0.7798685936 2.3425523541
H 8.6859737354 0.8774774014 0.8448972395
H 7.0026848357 1.3947331441 0.8475640556
N -0.2255699214 -2.2289788922 0.2047150481
C -1.3284835472 -2.8524575593 0.4687222863
O -1.4880653951 -4.1372866772 0.7105827552
C -0.3068988228 -4.9923979544 1.0044045905
C 0.9048350462 -4.3691495155 0.3689728320
C 0.9137093675 -3.0727793671 0.0457850968
H -0.2258742545 -4.9738576128 2.0992459999
H -2.2741264510 -2.3195719080 0.4549783617
H 1.7744296345 -2.5888930194 -0.3981273498
H 1.7594112920 -5.0125943073 0.1935088533
C -0.6585198964 -6.4363016139 0.5664073608
C -1.9565830696 -6.8767690778 1.2776880095
C -0.8781416439 -6.5038966562 -0.9575444605
C 0.4953635924 -7.4249552649 0.9677175254
O 1.6753876092 -7.2425566239 0.1733523036
C 0.9577213463 -7.3583735343 2.4232949437
H -2.8066387476 -6.2707106299 0.9531360332
H -2.1822183346 -7.9209437985 1.0369917322
H -1.8832167093 -6.7939454859 2.3672329521
H 0.0042212224 -6.1788787412 -1.5187426143
H -1.1165477194 -7.5304290484 -1.2596227939
H -1.7209623230 -5.8755549112 -1.2622109164
H 0.0902216813 -8.4302538871 0.7824609277
H 1.5492561072 -7.6936638060 -0.6748009975
H 0.1247313065 -7.4649654386 3.1235987440
H 1.6668543344 -8.1692330222 2.6089852823
H 1.4789911774 -6.4180355910 2.6347436170
N -2.4191515594 0.0527648526 -0.4692576999
C -3.2138885249 0.8177158985 0.2089050590
O -4.5266156709 0.8999991823 0.1161064233
C -5.2949235597 -0.1516117329 -0.6062851359
C -4.3818276690 -0.8224597095 -1.5942860613
C -3.0543800428 -0.7196951796 -1.4863970264
H -5.6007870361 -0.8504671207 0.1828488029
H -2.8090638260 1.5258032813 0.9272424090
H -2.3778416025 -1.2054441616 -2.1779874330
H -4.8497634625 -1.3893145330 -2.3910273849
C -6.5696469756 0.5123848271 -1.1892186310
C -7.3478609144 1.2046515104 -0.0496910414
C -6.1917180275 1.5593662667 -2.2542944907
C -7.5010841937 -0.5756142757 -1.8393222753
O -6.9483049885 -1.1250218970 -3.0428440543
C -7.8484095038 -1.7745873637 -0.9560389402
H -6.7860624866 2.0489337897 0.3590624587
H -8.3004174612 1.5918608043 -0.4264257544
H -7.5687313835 0.5197137242 0.7754433430
H -5.6090505426 1.1204786463 -3.0704836244
H -7.0941494368 2.0117747807 -2.6817730525
H -5.6020723089 2.3703766232 -1.8149041446
H -8.4341095138 -0.0470642814 -2.0817378046
H -7.1421635483 -0.5234514216 -3.7773079719
H -8.2695683275 -1.4716925736 0.0064080969
H -8.5871270312 -2.3920242589 -1.4735095411
H -6.9713185067 -2.4056503265 -0.7751313710
N -0.5482868788 0.4837282841 2.1358772751
C -1.3431887823 -0.2197707320 2.8714259876
O -1.6044414825 -0.0856941126 4.1573522886
C -1.0003132867 1.0053008792 4.9738829003
C -0.0237131015 1.7718691956 4.1290563232
C 0.1486643673 1.5152128471 2.8303935254
H -1.8584888292 1.6342119467 5.2373700872
H -1.9002232126 -1.0471559468 2.4419693499
H 0.8458163088 2.0799669195 2.2277083773
H 0.5543414667 2.5396540404 4.6279231628
C -0.4401965608 0.3750596481 6.2786732168
C -1.5752411244 -0.3810715709 7.0014099518
C 0.6978006496 -0.6085002282 5.9489459047
C 0.1091607581 1.4958515377 7.2377117966
O 1.3009222042 2.1079257787 6.7294138164
C -0.8542122277 2.6418067193 7.5459392983
H -1.9010866842 -1.2539813387 6.4285642431
H -1.2306700719 -0.7362020985 7.9785956440
H -2.4524726114 0.2526018503 7.1675269883
H 1.5122349527 -0.1181178353 5.4057743871
H 1.1098901575 -1.0429307636 6.8672431353
H 0.3297317579 -1.4398936962 5.3380948983
H 0.3416565458 0.9800558163 8.1805434939
H 2.0571105477 1.5407982778 6.9419936984
H -1.8107279186 2.2816045928 7.9340581545
H -0.4028791839 3.2930471368 8.2989145268
H -1.0438048332 3.2559473012 6.6587331546
N 0.2497073370 -0.4218273463 -2.3491191352
C 0.6614122316 0.5098821809 -3.1477843439
O 0.7766128560 0.4558201578 -4.4617178761
C 0.1158697239 -0.6372180118 -5.2199304615
C -0.0336055764 -1.8238897827 -4.3110255386
C 0.0054891629 -1.6749771456 -2.9839029292
H -0.8654688421 -0.2258840662 -5.4919836466
H 1.0035401252 1.4631928352 -2.7559698947
H -0.0991780418 -2.5168569659 -2.3130244063
H -0.1667009966 -2.7933913571 -4.7768163981
C 0.9285943179 -0.8651726665 -6.5199980295
C 1.0099739261 0.4614144652 -7.3062461611
C 2.3573716857 -1.3355072375 -6.1859043901
C 0.2270000222 -1.9400194756 -7.4276548294
O 0.3225695899 -3.2671286121 -6.8934541074
C -1.2587051114 -1.7145743641 -7.7075678551
H 1.5683399940 1.2170658801 -6.7469474142
H 1.5286515534 0.3037471740 -8.2577876284
H 0.0203699591 0.8734975437 -7.5298719577
H 2.3628181492 -2.2479900291 -5.5804787160
H 2.9185869586 -1.5303778718 -7.1074547304
H 2.9037362827 -0.5646948737 -5.6334068385
H 0.7651305837 -1.9006336554 -8.3859530286
H 1.2105725294 -3.6091619648 -7.0763751640
H -1.4550661930 -0.7178073609 -8.1121741383
H -1.5974088462 -2.4523227967 -8.4396810706
H -1.8627389245 -1.8552894935 -6.8042285871
