166
# extracted from Terachem optimization
Fe -0.2614574169 -0.0740224516 -0.2359757117
O -0.0531347607 2.1074671104 -0.3487455193
C 1.3173486753 2.6056910578 -0.3194436182
O 1.6676142688 3.1640568229 -1.5297707130
C 0.9209943624 4.4072593464 -1.8058472212
C -0.5330473239 4.1265044413 -1.5486208417
C -0.9413334701 3.0311352946 -0.9108292835
H 1.0786867434 4.5295280256 -2.8818577846
H -1.9704496924 2.7382605649 -0.7426869577
H -1.2730131243 4.8315173173 -1.9128309084
H 1.3511964230 3.3480913700 0.4932160302
N 1.8323620394 0.2528677523 -0.0158080474
C 2.2734885359 1.4645005416 -0.0527175604
C 3.7349171831 1.8004866202 0.0637162448
C 4.5149549534 0.7900041019 0.9373894393
C 3.9926570244 -0.6035138258 0.6704422929
C 2.7481281989 -0.8125477381 0.2215598001
H 4.3079583566 1.0081047770 1.9980799143
H 4.1374075856 1.7903604060 -0.9620907080
H 3.8722320652 2.8244234522 0.4234207091
H 2.3259751332 -1.8001148998 0.0725511797
H 4.6318829216 -1.4515514533 0.8989668587
C 6.0156177498 0.9345850760 0.7251599427
C 6.6312105809 0.4349704873 -0.4308811317
C 7.9984547719 0.6086736470 -0.6402826772
C 8.7830454645 1.2891446442 0.2993985002
C 10.2623357053 1.5701176929 0.0461114980
N 10.8575162441 0.5012712193 -0.7409599366
O 10.4405223940 2.7905770774 -0.6523131390
C 8.1688878437 1.7797780415 1.4560816808
C 6.8022335907 1.6035903124 1.6691995202
H 6.0427449534 -0.1010080557 -1.1734031775
H 8.4728249255 0.2086611391 -1.5313194225
H 10.7543025162 1.7500976114 1.0138871994
H 11.8515492700 0.6917071286 -0.8575646947
H 10.7697592326 -0.3989605545 -0.2715852900
H 10.1623275782 2.6165057214 -1.5691976376
H 8.7647658064 2.3076003322 2.1964811135
H 6.3469526666 1.9893823195 2.5790456357
C 1.5104413136 5.5922978723 -1.0740703491
C 0.9535599118 6.0983366643 0.1079336750
C 1.5323029667 7.1890872321 0.7588293662
C 2.6809956039 7.7977132429 0.2438607573
C 3.3325777206 8.9885713248 0.9447763684
N 4.6362157035 8.7152174501 1.5350121190
O 2.4459364315 9.4182378247 1.9531452268
C 3.2391215962 7.2904364368 -0.9398401110
C 2.6638595371 6.2052531443 -1.5911504049
H 0.0405373495 5.6648519105 0.5079133293
H 1.0848222190 7.5952641074 1.6578320694
H 3.4953869475 9.7826524496 0.1982859662
H 4.6563916953 7.8038302166 1.9879452553
H 5.3872635429 8.7548533215 0.8510334320
H 2.9617327177 10.0213184209 2.5142702876
H 4.1236678135 7.7598209488 -1.3641199752
H 3.1023984733 5.8358596306 -2.5152844335
O -0.3469065880 -2.2844334268 0.2482335614
C -0.6472230997 -2.5977601357 1.6311814034
O -1.8641963728 -3.2409163782 1.7418441837
C -1.8258224865 -4.5968297045 1.1618010733
C -1.1823059982 -4.4883388464 -0.1916671843
C -0.5544982232 -3.3837220963 -0.5903421438
H -2.8902229930 -4.8194381916 1.0371889926
H -0.1267272467 -3.2168856196 -1.5700245198
H -1.2598364438 -5.3259992752 -0.8767921483
H 0.1745485318 -3.2386724383 1.9888880453
N -0.6610941947 -0.1782406944 1.8840474819
C -0.7344631249 -1.3343300519 2.4529458515
C -0.9990383017 -1.5005128886 3.9261671218
C -0.4071784424 -0.3496478759 4.7701125812
C -0.6313441286 0.9512346762 4.0338511232
C -0.7593402419 0.9877746195 2.7013468654
H 0.6832963611 -0.4927527927 4.8474126375
H -2.0943117438 -1.5180707373 4.0461443272
H -0.6480028300 -2.4755030752 4.2759786164
H -0.8771587699 1.9073898980 2.1424572241
H -0.6461039197 1.8777109284 4.6006641461
C -0.9721077126 -0.3552290173 6.1838241399
C -2.2642194595 0.1217388146 6.4447420448
C -2.7866921046 0.0920489820 7.7366694896
C -2.0316194476 -0.4202075591 8.7993299324
C -2.6125408016 -0.5267614112 10.2073972541
N -3.5278334870 0.5750650419 10.4627904268
O -3.3175429577 -1.7425316312 10.3883255256
C -0.7428614656 -0.8954632768 8.5377883671
C -0.2165014299 -0.8617969409 7.2468136460
H -2.8672562389 0.5308858644 5.6362043276
H -3.7808624662 0.4802997860 7.9362781543
H -1.7789521349 -0.5997915212 10.9222198655
H -3.8596680796 0.5143968320 11.4242058419
H -3.0649396486 1.4762087639 10.3534719209
H -4.1566257538 -1.6381277246 9.9052396723
H -0.1435684896 -1.2945546664 9.3523370969
H 0.7925427665 -1.2278085588 7.0685806605
C -1.2136607975 -5.5944671659 2.1206332762
C 0.1006270103 -6.0604765410 1.9858679924
C 0.6304140019 -6.9742281019 2.8990033856
C -0.1406999126 -7.4389215957 3.9684072653
C 0.4237014349 -8.4255133137 4.9879746951
N 0.7594184049 -7.8425860427 6.2818193601
O 1.5827693915 -8.9966721435 4.4250678602
C -1.4561400933 -6.9699884745 4.1051344390
C -1.9870518856 -6.0626565362 3.1955733767
H 0.7072862818 -5.7402062446 1.1426042188
H 1.6361161538 -7.3585865104 2.7743119493
H -0.3400499449 -9.1940565364 5.1881658761
H 1.2191727073 -6.9408631450 6.1704175822
H -0.0599968354 -7.7158658382 6.8707700444
H 2.0379952616 -9.4413503176 5.1598904360
H -2.0768875113 -7.3341977550 4.9207587273
H -3.0140505514 -5.7231610859 3.3091869433
O -2.4876878638 -0.1183504185 -0.7011557602
C -2.8153296066 -0.4241055882 -2.0808005066
O -3.4539012638 -1.6444455711 -2.1790057901
C -4.8046517837 -1.6060901921 -1.5877712170
C -4.6886625729 -0.9488983843 -0.2411485387
C -3.5823768638 -0.3164966876 0.1456992294
H -5.0223321816 -2.6700164981 -1.4507424947
H -3.4106146254 0.1209245322 1.1202589592
H -5.5230912804 -1.0190305462 0.4487367400
H -3.4679118375 0.3921759177 -2.4297678850
N -0.4014417814 -0.3986126230 -2.3665374061
C -1.5625712111 -0.5004888716 -2.9186374802
C -1.7447707136 -0.7834796839 -4.3872053206
C -0.6149326279 -0.1799980222 -5.2510045999
C 0.6989398574 -0.3788647385 -4.5309316451
C 0.7547855119 -0.4892612756 -3.1978530325
H -0.7753860658 0.9077234823 -5.3322840089
H -1.7482615237 -1.8796300197 -4.4990861804
H -2.7292556183 -0.4487734589 -4.7265023509
H 1.6849590598 -0.5862028008 -2.6519603532
H 1.6180602261 -0.3858704392 -5.1094729311
C -0.6303887579 -0.7534564625 -6.6610367494
C -0.1449170250 -2.0428887914 -6.9193083301
C -0.1806595445 -2.5725162256 -8.2082132381
C -0.7070417270 -1.8270761358 -9.2707307783
C -0.8177734249 -2.4143345831 -10.6757334967
N 0.2851618875 -3.3283211169 -10.9318327972
O -2.0327329549 -3.1224756180 -10.8501878304
C -1.1913965233 -0.5411478319 -9.0118781374
C -1.1521506005 -0.0080135494 -7.7238767000
H 0.2761441289 -2.6377815123 -6.1108552781
H 0.2139883252 -3.5645814594 -8.4057509066
H -0.8950249423 -1.5839025219 -11.3937786472
H 0.2210095670 -3.6640630476 -11.8916632244
H 1.1854399326 -2.8623039266 -10.8286768252
H -1.9268256009 -3.9576260420 -10.3606966833
H -1.6016819452 0.0507033803 -9.8263163891
H -1.5249805869 0.9989208345 -7.5480199934
C -5.8132286156 -1.0061082539 -2.5431711773
C -6.2893480254 0.3046324503 -2.4098789288
C -7.2136355707 0.8235994086 -3.3184962807
C -7.6788372254 0.0450803422 -4.3823503777
C -8.6770285826 0.5985639947 -5.3966712668
N -8.1054453003 0.9390818736 -6.6942350357
O -9.2559159774 1.7523780369 -4.8309220762
C -7.1994405668 -1.2667127424 -4.5179462628
C -6.2818370236 -1.7870179717 -3.6124342818
H -5.9681061534 0.9170190514 -1.5711478710
H -7.6055888019 1.8264397163 -3.1944508425
H -9.4392001611 -0.1728908912 -5.5916831476
H -7.2083823255 1.4092401873 -6.5887682926
H -7.9730664400 0.1204357056 -7.2830097960
H -9.7100118545 2.2027203314 -5.5630060152
H -7.5634888886 -1.8932267231 -5.3292337789
H -5.9343495612 -2.8114627258 -3.7248848874
