145
# extracted from Terachem optimization
Fe -0.1765194693 -0.5977899821 -0.5136163714
O 0.0545821274 1.5679654706 -1.1368409892
C 1.4213536942 1.9866036624 -1.3968600217
C 1.6543569759 3.2390610592 -0.5141329511
C 0.2263086756 3.6511898939 -0.1708490788
C -0.5881187350 2.6660989718 -0.5417805203
H -1.6609626150 2.5735821921 -0.4871987112
H 2.2002361328 4.0107567434 -1.0667499330
H 2.2373448426 3.0098875145 0.3879607520
H 1.4737529318 2.2594971518 -2.4587936068
N 1.8898324158 -0.3726238611 -0.8242982651
C 2.3295218881 0.8107908166 -1.1526188194
N 3.6619780799 0.9085853851 -1.2973051426
C 4.3263805192 -0.3561159644 -0.9180273772
C 3.0687316055 -1.2652864144 -0.7157216583
H 3.0728312513 -1.7727385570 0.2511029076
H 3.0046533252 -2.0368223029 -1.4898244268
H 4.9229997469 -0.6997939280 -1.7684257380
H 4.1575775118 1.7713667152 -1.4676293504
C 5.2737348638 -0.1939180827 0.3032548177
C 6.3740932262 0.8425988234 -0.0410307247
C 4.5054126650 0.2840095434 1.5565116766
C 5.9659226979 -1.5240152620 0.6069070932
C 5.9218666358 -2.6499387041 -0.1169930383
O 6.6974675315 -1.4023889741 1.7561084906
H 5.9578820377 1.8527274985 -0.1418129110
H 7.1152418755 0.8774734714 0.7600895442
H 6.8932285483 0.5814330985 -0.9700547242
H 3.7564722803 -0.4462279353 1.8803696745
H 5.1993932162 0.4315686929 2.3860434122
H 4.0033371658 1.2386476317 1.3631581971
H 6.4819951182 -3.5321001439 0.1822972200
H 5.3621493591 -2.7339804882 -1.0385616007
H 7.2053502892 -2.2170048309 1.9060347042
C -0.1358989313 4.9683837164 0.5100298393
C 0.8649985912 5.2384977550 1.6535331525
C -0.0392281422 6.1260440928 -0.5225496504
C -1.5712975269 4.8963505643 1.0327496082
C -1.9539153971 5.0038814113 2.3120305187
O -2.4554598249 4.7084697561 0.0018031642
H 1.8803975633 5.3380933896 1.2568080962
H 0.6218851979 6.1780763344 2.1576383119
H 0.8641248612 4.4355681830 2.3979810964
H -0.7385583235 5.9777919608 -1.3477529214
H -0.2742616686 7.0780797672 -0.0358899118
H 0.9755625984 6.2004609070 -0.9287851105
H -3.0054765300 4.9823944871 2.5846988098
H -1.2464119236 5.1755092319 3.1105061352
H -3.3629721686 4.6062203723 0.3542134850
O -0.6478737774 -2.6637757217 0.2905682323
C -1.2242215946 -2.6836194743 1.6219683705
C -0.6060748525 -3.9095823788 2.3394303405
C 0.0328131374 -4.6741016901 1.1853302043
C -0.0136168756 -3.9025298962 0.1025415742
H 0.3141860979 -4.0802370806 -0.9094621693
H -1.3753468900 -4.4908044220 2.8573382132
H 0.1413769772 -3.6122194318 3.0859552399
H -2.3080049459 -2.8010282416 1.5008663054
N -0.4734203646 -0.3376669304 1.5598838319
C -0.9425221927 -1.3434087201 2.2448826122
N -1.1838836555 -1.0954219108 3.5415154825
C -0.7520957626 0.2677939067 3.9083337356
C -0.3224508044 0.8016053513 2.5002813617
H 0.7117684935 1.1545364377 2.4950284402
H -0.9491087624 1.6355890688 2.1731716998
H -1.6224443534 0.8167144116 4.2826224005
H -1.4858137938 -1.7874236489 4.2110860422
C 0.3289917618 0.2651532118 5.0271689398
C -0.2493482145 -0.4414317596 6.2811204385
C 1.6120194801 -0.4736306302 4.5795668488
C 0.6782872026 1.6984859248 5.4254903334
C 0.0988265289 2.8274873079 4.9944777571
O 1.6822715134 1.6828814676 6.3524311720
H -0.3983276752 -1.5135334885 6.1041871838
H 0.4458809514 -0.3465064368 7.1176806596
H -1.2042113344 0.0021988915 6.5854551848
H 2.0802295409 0.0048767215 3.7133940714
H 2.3439461954 -0.4725344281 5.3889640694
H 1.3912629984 -1.5160947156 4.3248013716
H 0.4051695510 3.7959471027 5.3823084785
H -0.7097537782 2.8357525295 4.2765429479
H 1.8589252272 2.5873496896 6.6602185716
C 0.6076541987 -6.0780167139 1.3390566236
C 1.5727310448 -6.0975166088 2.5435897593
C -0.5558632311 -7.0739757699 1.6101191918
C 1.3158148019 -6.5149184642 0.0581474295
C 2.5952564108 -6.8825864905 -0.0585343421
O 0.4389501819 -6.5235822023 -1.0069859290
H 1.0428160654 -5.8303897084 3.4633071803
H 1.9836224765 -7.1006294111 2.6869116613
H 2.4035938366 -5.3969171387 2.4096176549
H -1.2672979760 -7.0772933343 0.7818916474
H -0.1570803562 -8.0863955737 1.7283608872
H -1.0861448929 -6.8154318079 2.5329996015
H 2.9989873689 -7.2197540591 -1.0105250945
H 3.2727094016 -6.8933557003 0.7835358960
H 0.8661841958 -6.9737360729 -1.7546461383
O -2.6405481140 -0.5151598364 -0.6367372174
C -3.1811617677 -0.9434674834 -1.9118607928
C -4.1575963135 0.1714696314 -2.3574151672
C -4.3924729470 0.9272563130 -1.0527410883
C -3.4927143057 0.4948313819 -0.1690513441
H -3.3230116476 0.7688133128 0.8601305355
H -5.0742453060 -0.2532730629 -2.7777051637
H -3.7166425620 0.8239485334 -3.1225378448
H -3.7221733628 -1.8829770871 -1.7387289175
N -0.7857650350 -1.1302895131 -2.4376817053
C -2.0228711793 -1.2041572651 -2.8331103520
N -2.1924673851 -1.5462950763 -4.1228772174
C -0.8906207850 -1.5996303556 -4.8220708774
C 0.0701958652 -1.4703568684 -3.5964100069
H 0.8333952676 -0.7042651320 -3.7450681743
H 0.5891660745 -2.4136735192 -3.3948352085
H -0.7910389212 -2.5817428753 -5.2928655627
H -3.0810942710 -1.5326590832 -4.6022400249
C -0.7524646602 -0.5155703357 -5.9282710365
C -1.8437581346 -0.7467645454 -7.0055261474
C -0.9079761370 0.9104324634 -5.3521611819
C 0.6079216442 -0.6468867844 -6.6167289416
C 1.4994808084 -1.6374027127 -6.4779080812
O 0.7944837233 0.4090309692 -7.4651362878
H -2.8482007823 -0.5512850244 -6.6099881970
H -1.6899044152 -0.0652206165 -7.8450469733
H -1.8113225125 -1.7714534710 -7.3916656310
H -0.1566886042 1.1342119168 -4.5863701300
H -0.7973068731 1.6480191557 -6.1486434954
H -1.8999814766 1.0428667189 -4.9077237562
H 2.4218011572 -1.6481590999 -7.0532047059
H 1.3353342758 -2.4866647113 -5.8284576597
H 1.6065612998 0.2721024878 -7.9807563616
C -5.4956931234 1.9728493041 -0.9150684192
C -5.3818679924 2.9804372128 -2.0804228121
C -6.8779821390 1.2586471769 -0.9986832991
C -5.4547113293 2.6893435667 0.4349067663
C -5.5302346852 4.0162957911 0.6330005547
O -5.4308929634 1.7946033713 1.4734018370
H -5.4516389836 2.4616414391 -3.0410115778
H -6.2045599823 3.6996756949 -2.0493419936
H -4.4343279184 3.5286629246 -2.0525032176
H -6.9942477392 0.5346527988 -0.1887840992
H -7.6823365213 1.9968828756 -0.9232086269
H -6.9924748796 0.7395392485 -1.9558682567
H -5.6216148908 4.4272678079 1.6366039681
H -5.6288474601 4.7155782648 -0.1865381737
H -5.6078481084 2.2681413109 2.3039559387
