151
# extracted from Terachem optimization
Fe 0.1728595863 -0.1965046284 -0.0295795728
N 0.1991699594 1.7915462132 0.4496254979
C 1.3663564625 2.3791173132 0.3184244616
N 1.5768651652 3.6910665185 0.5260172776
C 0.5855257137 4.6064382326 1.1252728758
C -0.7658341255 3.9404230080 1.0397395639
C -0.8849525941 2.6358150157 0.7488742094
H 0.8597807467 4.7602467114 2.1824779461
H 2.4325691968 4.1506524592 0.2320137037
H -1.8488624372 2.1432286546 0.7304875328
H -1.6382576445 4.5474282845 1.2501884367
N 2.1295077839 0.2595626109 -0.3978144761
C 2.4805408085 1.4870510461 -0.0903947579
N 3.7398870912 1.9506852135 -0.1005813343
C 4.9145313592 1.1867694681 -0.5572326624
C 4.4503793216 -0.1915615756 -0.9514422669
C 3.1706363006 -0.5789788347 -0.8411375603
H 5.6236928047 1.1018603996 0.2778869926
H 3.9245730543 2.9415094332 0.0271852112
H 2.8619971772 -1.5801142708 -1.1153454726
H 5.2058096424 -0.8751203481 -1.3206216669
C 5.6805214235 1.9502349396 -1.6901474832
O 6.8290969250 1.1275257356 -1.8951253911
C 4.8512737730 2.0622972650 -2.9716284078
C 6.1726715001 3.3564518688 -1.2276954178
O 5.0002364780 4.1707929470 -0.9819261914
C 7.0986757423 3.3545192801 -0.0142166261
H 7.2408569111 1.3683156430 -2.7408463917
H 3.9508556573 2.6629207503 -2.8190399665
H 5.4377079713 2.5501224959 -3.7601331404
H 4.5635468202 1.0670018745 -3.3239161116
H 6.7131838586 3.7807461305 -2.0872886918
H 5.2921202763 5.0796933676 -0.8061711065
H 7.9387396347 2.6734264271 -0.1699761650
H 7.5038818021 4.3593048693 0.1529956406
H 6.5691338825 3.0544697623 0.8968550866
C 0.7343893762 5.9995058957 0.4236559891
O 2.1457003865 6.2958547098 0.4040346338
C 0.3106763777 5.9463936164 -1.0427772662
C -0.0199673506 7.1452626248 1.1661103467
O -1.4343543043 6.9654578723 1.0804566184
C 0.3018061110 7.3021319606 2.6533006350
H 2.4037275976 6.6092190213 1.2867968279
H -0.7375377840 5.6494147603 -1.1339546682
H 0.4506022611 6.9272718774 -1.5082884648
H 0.9175782772 5.2250993427 -1.5978992770
H 0.2811074470 8.0665810204 0.6471173094
H -1.7501528267 7.3622657282 0.2548995412
H 1.3770756101 7.3856912952 2.8550862299
H -0.1667528754 8.2183274377 3.0217332871
H -0.0986563666 6.4688595034 3.2389901465
N 0.4382252092 -2.1740275656 -0.4342291206
C 0.7844683518 -2.8933987964 0.6050519253
N 0.9476529537 -4.2336409305 0.5940210751
C 0.6475347481 -5.0999639453 -0.5696706770
C 0.2281062885 -4.2215077832 -1.7200046620
C 0.1528315508 -2.8867900987 -1.6139127675
H 1.5735934053 -5.6342063200 -0.8285231440
H 0.9119414499 -4.7485446789 1.4697018062
H -0.1325240552 -2.2653783444 -2.4537228362
H -0.0272703362 -4.7164797236 -2.6483693711
N 0.6809212778 -0.8685465013 1.8134276072
C 1.0258751858 -2.1314497299 1.8535359774
N 1.5637076984 -2.7385911532 2.9337288486
C 1.7154769781 -2.1157412939 4.2712386049
C 1.4089621626 -0.6470392814 4.1105985651
C 0.9312325233 -0.1199264770 2.9743416008
H 2.7586387851 -2.2663068335 4.5704319325
H 2.0155827259 -3.6323404083 2.8004467782
H 0.6952712611 0.9323480171 2.8815956547
H 1.5782383715 -0.0040296939 4.9646746016
C 0.8311419191 -2.8023151297 5.3931893420
O -0.3531169205 -2.0404341136 5.6275113399
C 0.4713215254 -4.2477806861 5.0350659055
C 1.5953690853 -2.8007975383 6.7462413975
O 2.7876486589 -3.5523304712 6.5078725727
C 1.9084321864 -1.4264901471 7.3383420406
H -1.0560889496 -2.3701191750 5.0469206063
H 1.3641595673 -4.8673924889 4.9142651431
H -0.1253144958 -4.6804046145 5.8440842023
H -0.1214691986 -4.2962109186 4.1131232419
H 0.9405233623 -3.3356644959 7.4498359037
H 3.2876202393 -3.6035005676 7.3375255507
H 1.0019883025 -0.8224862736 7.4339073000
H 2.3337975277 -1.5483826362 8.3416459901
H 2.6468399514 -0.8859419589 6.7365198988
C -0.3836928469 -6.1923274303 -0.0994214019
O 0.0936992057 -6.6708253862 1.1724921647
C -1.7589247515 -5.5907832740 0.1804536456
C -0.5087635732 -7.3859307116 -1.0852343364
O -1.0499470344 -6.8560056376 -2.2951504829
C 0.7819352999 -8.1660589124 -1.3655373080
H 0.8198128049 -7.2984618462 1.0212932586
H -2.1998815987 -5.1958968944 -0.7365273199
H -2.4182807070 -6.3619809010 0.5887989897
H -1.6902175541 -4.7842636446 0.9177042929
H -1.2300287951 -8.0719989409 -0.6157236719
H -1.2477316603 -7.5976115842 -2.8887434355
H 1.2317435433 -8.5922444203 -0.4597658353
H 0.5555624121 -9.0201512367 -2.0139368303
H 1.5298561581 -7.5539143331 -1.8787033645
N -1.8268057853 -0.4561100253 0.2386368440
C -2.5616126878 -0.1414071791 -0.8008794356
N -3.9057534381 -0.2496708515 -0.8553828714
C -4.7493403677 -0.7364314317 0.2593504364
C -3.8430565546 -1.1837392200 1.3779647314
C -2.5125152152 -1.0243887828 1.3284692245
H -5.3714948507 0.1059334776 0.5993657776
H -4.3805602397 -0.3009121374 -1.7527179760
H -1.8752173921 -1.3247198987 2.1506392764
H -4.3150494052 -1.6425470932 2.2377648912
N -0.5097518238 0.2990580032 -1.8756667555
C -1.8115785934 0.3955717244 -1.9618139009
N -2.4748256059 0.9035269229 -3.0259642756
C -1.8198058185 1.5975576934 -4.1668484515
C -0.3432416402 1.2879841649 -4.0799212319
C 0.2183735908 0.7275171331 -2.9994176631
H -1.9978714843 2.6754955988 -4.0503803774
H -3.4481077701 1.1365096655 -2.8851833534
H 1.2835172216 0.5440534778 -2.9312191477
H 0.2775684206 1.5618077797 -4.9221214872
C -2.4608166873 1.1970060954 -5.5510395331
O -1.7274178528 0.1428521626 -6.1706154563
C -3.9344372225 0.7927568446 -5.4023760550
C -2.3815725687 2.3858991167 -6.5499190679
O -3.0797191251 3.4648025667 -5.9219171169
C -0.9797375306 2.8119699879 -6.9864159262
H -2.0118198698 -0.7005870302 -5.7847547582
H -4.5364856617 1.6031777453 -4.9793833786
H -4.3409566312 0.5558796731 -6.3896268523
H -4.0421508996 -0.1015894113 -4.7763378863
H -2.9280046137 2.0477750385 -7.4420661119
H -3.1417295857 4.1942419316 -6.5581284653
H -0.4167416515 1.9648701909 -7.3880515727
H -1.0574898487 3.5639762022 -7.7807612818
H -0.4212982496 3.2674736365 -6.1620254248
C -5.7332012588 -1.8190528125 -0.3213434470
O -6.2181012014 -1.2950750482 -1.5723312610
C -5.0054782978 -3.1139234035 -0.6735101942
C -6.9389681485 -2.1156394102 0.6125699927
O -6.3963289202 -2.6909978210 1.8012963847
C -7.8413202058 -0.9236110077 0.9539108160
H -6.9037829926 -0.6314427705 -1.3897253214
H -4.6237107625 -3.5942777985 0.2292829498
H -5.6967775999 -3.7970711068 -1.1748084819
H -4.1688958809 -2.9193967086 -1.3523735116
H -7.5423093805 -2.8600057983 0.0711074286
H -7.1319332515 -3.0095964177 2.3479555461
H -8.2900259838 -0.4563071060 0.0681263638
H -8.6822401070 -1.2724696572 1.5640276630
H -7.3124300487 -0.1588539646 1.5307760396
