139
# extracted from Terachem optimization
Fe -0.0183430052 -0.0778763512 -0.0069235161
N -0.0072272823 2.0081760862 0.4139319118
C 1.1526148464 2.6113250846 0.2781036270
N 1.3573084955 3.9214549238 0.3738257164
C 0.2827482299 4.9085481747 0.5589295563
C -1.0312053048 4.2750878060 0.0936591776
C -1.1774814271 2.8611649390 0.6771830311
H 0.2342060115 5.1503301583 1.6293550293
H -1.0400752919 4.2215755537 -1.0024462457
H -1.8852959847 4.8866442201 0.3991665444
H 2.2171761635 4.4168488246 0.0801771760
H -1.3320272955 2.9197916489 1.7637622812
H -2.0526061472 2.3588467041 0.2595623088
N 2.0155004446 0.4840441176 -0.3535395436
C 2.3223395220 1.7076375694 -0.0013668990
N 3.5647152520 2.1905027878 0.1222514668
C 4.7867111846 1.4280688620 -0.2208125345
C 4.3754132299 0.2844539784 -1.1436377072
C 3.1315940937 -0.4389127220 -0.6141429352
H 5.2203022047 1.0220776697 0.6999747065
H 4.1674214392 0.6755657366 -2.1471681060
H 5.2022499743 -0.4261254979 -1.2250658530
H 3.6952259668 3.0946480186 0.5606671376
H 3.3663685679 -0.9781877280 0.3137836770
H 2.7868547170 -1.1844601441 -1.3345932345
C 5.8454148921 2.4118555673 -0.8116729537
N 5.5257794469 3.0473357344 -2.0755606561
C 7.2213779758 1.7264822620 -0.9305745408
N 7.5923033814 1.0584631420 0.3201122768
H 5.9488246693 3.2185275604 -0.0664349408
H 5.5579131005 2.4066520207 -2.8638100929
H 4.6315266598 3.5285660019 -2.0752508131
H 7.1732673967 0.9652160036 -1.7200735276
H 7.9323875604 2.4897820863 -1.2763137415
H 8.3495940424 0.3998214943 0.1499509241
H 7.9641204756 1.7378405010 0.9831139778
C 0.7113319999 6.1950241761 -0.2085628060
N 2.1780442737 6.3056300088 -0.1128306691
C -0.0084808572 7.4498847078 0.3433931079
N 0.5096722546 7.7738335311 1.6773059160
H 0.4523270594 6.0612455961 -1.2664166718
H 2.3851900693 6.8032210179 0.7587843950
H 2.5468407063 6.8682524392 -0.8773018662
H 0.1873645729 8.2752494203 -0.3494314211
H -1.0964083003 7.2947872458 0.3389901381
H 0.7963428424 8.7466128270 1.7377321242
H -0.1914581858 7.6402055273 2.3999376872
N 0.3877841131 -2.1669121575 -0.1077725064
C 0.6170268689 -2.7688236498 1.0371179019
N 0.7581437713 -4.0794115459 1.2101936110
C 0.5848205792 -5.0691594879 0.1371139226
C -0.2582018767 -4.4299327926 -0.9699492181
C 0.2580564789 -3.0213340960 -1.2988375482
H 1.5824597535 -5.3287481076 -0.2422120563
H -1.3023968961 -4.3646830960 -0.6377200378
H -0.2404551926 -5.0469894169 -1.8732102257
H 0.7561554507 -4.5687802176 2.1213953009
H 1.2385886600 -3.0839309206 -1.7913436357
H -0.4159777978 -2.5178021029 -1.9952321946
N 0.2934363617 -0.6353053356 2.0321647361
C 0.7339762659 -1.8536926270 2.2245504997
N 1.2604027145 -2.3192842060 3.3634454913
C 1.3699069415 -1.5248723852 4.6086921610
C 0.3615021026 -0.3817446946 4.5159990536
C 0.4326324961 0.3111401913 3.1502012783
H 2.3851156483 -1.1168395929 4.6776134456
H -0.6529140326 -0.7673278197 4.6759005996
H 0.5682866291 0.3483488989 5.3034933255
H 1.7206761713 -3.2221921969 3.3512100559
H 1.3880092660 0.8424057235 3.0401198730
H -0.3584584559 1.0590172360 3.0554847196
C 1.1976294312 -2.4776273736 5.8311919840
N -0.1010154346 -3.0983260936 6.0113432367
C 1.6001873960 -1.7672403002 7.1386758657
N 2.9170529269 -1.1358703955 7.0140444957
H 1.9225822906 -3.2937680456 5.6710694463
H -0.8116985036 -2.4485663514 6.3364551884
H -0.4427956022 -3.5762486996 5.1829873024
H 0.8664080859 -0.9808112030 7.3581586022
H 1.5169725028 -2.5075927469 7.9464443046
H 3.0495395567 -0.4578973620 7.7617609611
H 3.6515159160 -1.8312990752 7.1412511846
C -0.0332216958 -6.3409821095 0.7904951240
N 0.5314996900 -6.4659561384 2.1457557834
C 0.2174629336 -7.6051406990 -0.0673286570
N 1.6324434771 -7.9859303086 0.0059433932
H -1.1136788085 -6.1765991343 0.8892851618
H 1.4051646081 -6.9946063657 2.0577716615
H -0.0891302943 -7.0057483638 2.7461649112
H -0.4078733464 -8.4075046515 0.3383396837
H -0.1245719772 -7.4379481089 -1.0983469353
H 1.7397676282 -8.9680798462 0.2420276194
H 2.1102851863 -7.8530372249 -0.8805060305
N -2.1369983424 -0.3112618934 0.0326047744
C -2.7577373037 -0.1878045050 -1.1186859547
N -4.0571493342 -0.3839747804 -1.3212828987
C -4.9856707506 -0.8408095770 -0.2770991924
C -4.1694700301 -1.5728782686 0.7908234996
C -2.9412517956 -0.7406960098 1.1886250391
H -5.4712236630 0.0457958523 0.1532301708
H -3.8423284262 -2.5429227083 0.3950782837
H -4.7778976728 -1.7680195035 1.6786837126
H -4.5197691823 -0.4555266784 -2.2421526813
H -3.2543744033 0.1538274940 1.7446900219
H -2.2881976484 -1.3112491910 1.8522457337
N -0.5987015918 0.1606918504 -2.0512766831
C -1.8874210462 0.2332295181 -2.2713020631
N -2.4589908687 0.6520499844 -3.4070058989
C -1.6990447982 1.0514996430 -4.6126339492
C -0.3182139395 0.4059999479 -4.5223734611
C 0.2973471954 0.6022241058 -3.1319665137
H -1.5979079869 2.1432954801 -4.6194782665
H -0.3965660144 -0.6668318151 -4.7371336557
H 0.3392738681 0.8477470203 -5.2763476841
H -3.4569734664 0.8275830528 -3.4159339012
H 0.5456233484 1.6593574498 -2.9657233564
H 1.2307282114 0.0413223963 -3.0422673650
C -2.5299223759 0.6854973079 -5.8808820886
N -2.7258460817 -0.7236344614 -6.1637974844
C -1.9513936915 1.3746493598 -7.1325144517
N -1.7670978823 2.8114678391 -6.9061353126
H -3.5304583236 1.1188549928 -5.7117257981
H -1.8801051233 -1.1849508241 -6.4882568750
H -3.1069532450 -1.2466713492 -5.3810429168
H -0.9702105775 0.9392832851 -7.3635360684
H -2.6113896569 1.1202933919 -7.9733103760
H -1.1490977853 3.1978953686 -7.6169053650
H -2.6550770853 3.2988654035 -7.0217501710
C -6.0846762800 -1.6865184581 -0.9851424093
N -6.3355979439 -1.0697470484 -2.2991246038
C -7.3647155770 -1.7874372989 -0.1207660903
N -8.0350872021 -0.4827941465 -0.0682043823
H -5.6822049018 -2.6924990634 -1.1594042337
H -7.0164119368 -0.3174597448 -2.1569654592
H -6.7574577214 -1.7414603601 -2.9378728759
H -8.0182591566 -2.5380129720 -0.5787898673
H -7.1139762415 -2.1662218004 0.8792517340
H -9.0032406780 -0.5501428225 -0.3685366645
H -8.0569037469 -0.1061449097 0.8746736673
