142
# extracted from Terachem optimization
Fe 0.0578278304 0.0796294476 0.0200677515
O 0.2059585188 2.0502345321 0.4767246413
C 1.5527746796 2.5533205598 0.4672059047
S 1.8325969110 3.6823182271 1.8844470724
C 0.5225328340 4.9321124024 1.4197656605
C -0.8044045949 4.1851149247 1.1773377556
C -0.7608215212 3.0871690315 0.1198113847
H 0.4085152617 5.5145290167 2.3403600833
H 1.6912963787 3.1260528428 -0.4608132567
H -1.7129735529 2.5646065586 0.0490163910
H -0.5005301493 3.4834695340 -0.8672800066
H -1.5709014099 4.9032007318 0.8692463153
H -1.1341873659 3.7514276663 2.1282741265
N 2.0119866376 0.2167142807 0.2263496387
C 2.5168789185 1.3879249064 0.4618747110
C 3.9373729425 1.6386698961 0.6593701073
C 4.8513392283 0.7050672833 0.3064583633
C 4.3338613349 -0.6010050509 -0.2557414294
C 2.9445701700 -0.9267179431 0.2863865910
H 4.3280984746 -0.5317090312 -1.3541951580
H 5.0142829768 -1.4243292866 -0.0211886575
H 4.2291995151 2.6155472279 1.0241586520
H 3.0120641394 -1.2277246100 1.3417184703
H 2.4890420770 -1.7583842646 -0.2488995425
C 6.3523958298 0.9203747010 0.3945325000
C 6.7727214342 2.2097480092 1.1092803626
C 6.9760695779 0.7686475293 -0.9923123701
C 7.2956605514 1.7698567078 -1.8167853627
O 7.1486698596 -0.5610953308 -1.2851046517
H 6.7442438732 0.0702840861 0.9735479662
H 7.8623356256 2.2556496815 1.1761325083
H 6.4346640701 3.1087999065 0.5840956633
H 6.3677437533 2.2374265857 2.1256242799
H 7.7531801480 1.5865158649 -2.7855272515
H 7.1484706147 2.8042129488 -1.5350149295
H 7.5853046561 -0.6450421036 -2.1497740519
C 1.0115227797 5.9082783549 0.3052433423
C 2.1681992478 6.7864861805 0.8060050716
C -0.1443655877 6.7276151932 -0.2401446237
C -0.5466915034 7.9230047439 0.1987294983
O -0.7639533924 6.0422736636 -1.2665780628
H 1.3742446975 5.3193450590 -0.5475348121
H 2.4907094536 7.4764006866 0.0219203674
H 1.8715379775 7.3811587319 1.6767667849
H 3.0239166633 6.1723263657 1.0987027735
H -1.3950019503 8.4402759356 -0.2421405804
H -0.0244986760 8.4371384764 0.9951351665
H -1.4803776528 6.5924131240 -1.6264889173
O -0.0265230265 -2.0331038816 -0.2247090816
C -0.2421540885 -2.7632942145 0.9865139475
S 0.9557258221 -4.1533366318 1.1606630013
C 0.5089626578 -5.0458943384 -0.4128823798
C 0.5427652599 -4.0308668247 -1.5700869932
C -0.3666075812 -2.8193655522 -1.4037831374
H 1.3522528915 -5.7318087839 -0.5502755552
H -1.2557672749 -3.1884202988 0.9511811097
H -0.2488626905 -2.1382707198 -2.2443681459
H -1.4186643608 -3.1173282576 -1.3314156467
H 0.2544389458 -4.5326708465 -2.4996789950
H 1.5745574856 -3.6842253635 -1.6958707601
N -0.0427036504 -0.5573575749 1.9237647387
C -0.1439879070 -1.8261113796 2.1708000544
C -0.2069722841 -2.3992635643 3.5102276672
C -0.4587283083 -1.6138854672 4.5828256071
C -0.6332505082 -0.1333805555 4.3336128270
C 0.1420212058 0.3189885006 3.0992866218
H -1.7083954205 0.0811761383 4.2331871812
H -0.3056461044 0.4496067841 5.1989293048
H -0.1140606146 -3.4742066453 3.6008177259
H 1.2206620961 0.3348207125 3.3144074506
H -0.1378749236 1.3308939896 2.8142803029
C -0.6215388372 -2.1450730648 5.9966084777
C -0.2678332341 -3.6261841357 6.1689061759
C -2.0124769848 -1.7948564906 6.5243989807
C -3.0639998274 -2.6183078122 6.5598010217
O -2.0365244297 -0.4913184436 6.9526740731
H 0.0685766445 -1.5564764396 6.6199781697
H -0.3697671192 -3.9097582903 7.2191604086
H -0.9198095993 -4.2818244411 5.5829213239
H 0.7662419558 -3.8159209554 5.8644190458
H -4.0196843896 -2.3038260905 6.9713617671
H -2.9933413040 -3.6433567286 6.2201534990
H -2.9119935810 -0.2916625736 7.3255440522
C -0.7785145331 -5.9135769254 -0.2521316978
C -0.5366886094 -7.0802321471 0.7171949092
C -1.2926838540 -6.3801783511 -1.6027201905
C -0.9687421687 -7.5151700438 -2.2272258341
O -2.1494729730 -5.4352161055 -2.1340056971
H -1.5786868576 -5.2854209962 0.1608684223
H -1.4441467275 -7.6793053548 0.8295251178
H 0.2603615413 -7.7395824067 0.3572822545
H -0.2429788848 -6.7116447395 1.7038383587
H -1.3754579903 -7.7707494714 -3.2025137120
H -0.3079570981 -8.2415611394 -1.7721463291
H -2.5020211802 -5.7715832418 -2.9754258842
O -2.0360237935 0.1008784679 -0.2471263194
C -2.4429340125 0.1572874793 -1.6186807237
S -3.7286303653 1.4498337015 -1.8956772765
C -4.9878204456 0.7876192008 -0.6897716290
C -4.2877559622 0.5665960336 0.6630779089
C -3.0956536505 -0.3828002164 0.6304429723
H -5.6758612692 1.6324222900 -0.5733863188
H -2.8759035418 -0.8173106352 -1.8852257187
H -2.6393130198 -0.4594016108 1.6169137550
H -3.3917422654 -1.3844645605 0.2993682143
H -5.0073310111 0.1626870669 1.3824490358
H -3.9575991851 1.5386191080 1.0461292453
N -0.0667913646 0.4339216713 -1.9421666252
C -1.2376718236 0.4112068226 -2.5023998759
C -1.4573998721 0.5600162084 -3.9363627892
C -0.4288932711 0.4259709103 -4.8063837093
C 0.9469518638 0.1783889853 -4.2269868760
C 1.0665034018 0.7710968375 -2.8265090984
H 1.1390719469 -0.9052559912 -4.2184214040
H 1.7233136016 0.6029518076 -4.8693508563
H -2.4758667533 0.7028058664 -4.2754717491
H 1.1072161173 1.8693775907 -2.8904553873
H 1.9794456682 0.4380592958 -2.3333159772
C -0.5921980852 0.4676866088 -6.3165752494
C -1.9931685266 0.8628839214 -6.7965423289
C -0.0902196481 -0.8383159532 -6.9305280276
C -0.8558897019 -1.8611322995 -7.3211859867
O 1.2789845233 -0.8192517515 -7.0192115540
H 0.1157224156 1.2317272923 -6.6726056274
H -2.0089700508 0.9122918898 -7.8878515823
H -2.7586363474 0.1451668376 -6.4847657037
H -2.2718562275 1.8470989265 -6.4074350336
H -0.4284496745 -2.7522310552 -7.7737248876
H -1.9345232412 -1.8228863529 -7.2433524038
H 1.5838892673 -1.6303359393 -7.4602213636
C -5.8056394929 -0.4053841547 -1.2749770807
C -6.6523671940 0.0415064243 -2.4764406201
C -6.6415922101 -1.0635249220 -0.1915706211
C -7.8928523104 -0.7425311670 0.1470187942
O -5.9083874310 -2.0490424464 0.4399588606
H -5.1087671541 -1.1826397850 -1.6141558461
H -7.2351568888 -0.7969295446 -2.8668970985
H -7.3519835951 0.8366862564 -2.1975812639
H -6.0168025825 0.4239553298 -3.2794581046
H -8.4208235593 -1.2550026785 0.9471272334
H -8.4418875868 0.0249226297 -0.3830447784
H -6.4724327692 -2.4868658451 1.1000221575
