145
# extracted from Terachem optimization
Fe -0.3734128268 -0.4172618792 -0.5690234786
O -0.1529719112 1.6463958539 -0.5648440644
C 1.2339384593 2.1066911943 -0.6037300520
C 1.3494965221 3.2008525376 0.4871172951
C -0.1110394720 3.4874459557 0.8162168426
C -0.8655174604 2.5708692879 0.2173252043
H -1.9334253500 2.4379352732 0.1952421612
H 1.8761842828 4.0797281807 0.1017924419
H 1.9021099286 2.8494302623 1.3670696346
H 1.3867303798 2.5394881218 -1.6006044269
N 1.5933982703 -0.2997792104 -0.4224609399
C 2.1029957148 0.8925977659 -0.4403502275
N 3.4455954083 0.9569779734 -0.2778189833
C 4.0083628967 -0.4152850777 -0.3035197594
C 2.6978584570 -1.2635035984 -0.2266913551
H 2.5849364468 -1.7546604696 0.7445778390
H 2.6581465600 -2.0411480494 -0.9913839417
H 4.4972693317 -0.5688556076 -1.2735931210
H 3.9888570868 1.7558925820 -0.5749836647
C 5.0665425580 -0.6346416301 0.8110055719
C 6.2361791287 0.3578821420 0.5830854370
C 4.4669966844 -0.3858808206 2.2121765416
C 5.6386647967 -2.0500902455 0.7324120689
C 5.4852530163 -2.9368990764 -0.2613158538
O 6.4018387515 -2.2967757531 1.8383791255
H 5.9140497555 1.3937284554 0.7427888264
H 7.0429544897 0.1546418645 1.2910843766
H 6.6466481578 0.2653413962 -0.4289708353
H 3.7026137660 -1.1250154975 2.4738046470
H 5.2497827184 -0.4488585066 2.9698931902
H 4.0199782422 0.6124614015 2.2603878559
H 5.9858147157 -3.9016263994 -0.2332845139
H 4.9078458581 -2.7266687985 -1.1513010400
H 6.8443457680 -3.1568005370 1.7448713116
C -0.5720398876 4.6578531717 1.6817821019
C 0.4032045726 4.8381207719 2.8636192580
C -0.5598558775 5.9538903063 0.8218954419
C -1.9987071894 4.4095189480 2.1745771011
C -2.3874741812 4.3082150566 3.4516743651
O -2.8778961420 4.3129354926 1.1226438811
H 1.4087684138 5.0698480560 2.4981977148
H 0.0851064838 5.6763864089 3.4891057367
H 0.4634331327 3.9419412371 3.4904846214
H -1.2654124090 5.8805727776 -0.0081586426
H -0.8394770036 6.8129291730 1.4401811701
H 0.4411599208 6.1425189844 0.4185190647
H -3.4345454481 4.1724669671 3.7092623031
H -1.6917090364 4.4021108148 4.2727850562
H -3.7697239002 4.0866346630 1.4541091819
O -0.7179513179 -2.4383403364 -0.4719644853
C -1.1128898062 -2.9607165126 0.8357563911
C -0.2495853715 -4.2245015937 1.0666955540
C 0.3466623616 -4.4745499850 -0.3128596241
C 0.0587178862 -3.4359233114 -1.0914096222
H 0.2792630340 -3.2318252397 -2.1264514593
H -0.8663412190 -5.0587681321 1.4150124926
H 0.5287765187 -4.0569688053 1.8209440328
H -2.1753979344 -3.2196382412 0.7560940406
N -0.6244618360 -0.6455450904 1.4343761675
C -0.9268320808 -1.8457833232 1.8227629943
N -1.0097315151 -2.0315107551 3.1606098077
C -0.9094193541 -0.7195323275 3.8423535568
C -0.4293736744 0.1743803060 2.6547091347
H 0.6305498816 0.4336459127 2.7433867025
H -0.9883128628 1.1070863798 2.5751029153
H -1.9165968001 -0.4157350515 4.1561338300
H -1.5193282738 -2.8030267540 3.5693019495
C -0.0109867413 -0.7895894633 5.1075808345
C -0.6267274522 -1.8207937667 6.0898981383
C 1.4256089545 -1.2329889718 4.7586363156
C 0.0220044517 0.5623893735 5.8200561011
C -0.7584696766 1.6260392477 5.5844114669
O 0.9660246060 0.5356119354 6.8076994787
H -0.5479368304 -2.8405436660 5.6947980821
H -0.0900429817 -1.7983635809 7.0411105581
H -1.6806169486 -1.5987655367 6.2943126277
H 1.9545938498 -0.4892282230 4.1541209139
H 2.0044300557 -1.3737899457 5.6728515424
H 1.4086135770 -2.1821263844 4.2126888881
H -0.6773179964 2.5241978411 6.1917138352
H -1.5192994687 1.6383239425 4.8163162728
H 0.9285897989 1.3609471755 7.3190556906
C 1.1541026783 -5.7203241802 -0.6563422174
C 2.2759199297 -5.8954899844 0.3916119073
C 0.2262078684 -6.9672251491 -0.6093765745
C 1.7331258027 -5.6068727327 -2.0652437326
C 3.0292732908 -5.6062398135 -2.3947156862
O 0.7287003161 -5.5318200047 -3.0070865520
H 1.8491925447 -6.0179817472 1.3918637248
H 2.8556747927 -6.7967035908 0.1740104929
H 2.9570457077 -5.0381108003 0.4100234415
H -0.5836300213 -6.8839797593 -1.3368821149
H 0.8053529559 -7.8668163797 -0.8402721603
H -0.2046265748 -7.0966734394 0.3890538451
H 3.3446780267 -5.5615652749 -3.4346253503
H 3.8117866956 -5.6920905582 -1.6543994072
H 1.1178735402 -5.6619690473 -3.8878994599
O -2.4874671554 -0.3524090699 -0.8228733080
C -2.9042710677 -0.4148156611 -2.2213482577
C -3.9200003364 0.7341494693 -2.3993053659
C -4.3428251824 1.0065930244 -0.9582752416
C -3.4742640102 0.3951764854 -0.1537469756
H -3.4123533374 0.3403018376 0.9207585357
H -4.7522738272 0.4258993552 -3.0387770547
H -3.4618415670 1.6199402904 -2.8570033293
H -3.3986337357 -1.3859446905 -2.3551905913
N -0.4808525880 -0.3651183409 -2.5551503037
C -1.6700874917 -0.3537516599 -3.0738522014
N -1.7197049495 -0.2551170180 -4.4205281974
C -0.3480323258 -0.2960804012 -4.9778775489
C 0.4953166759 -0.2709585349 -3.6601328384
H 1.0728047440 0.6531926195 -3.5686004485
H 1.2044973976 -1.1010068335 -3.6037431571
H -0.2123522252 -1.2520131658 -5.4971398831
H -2.5318023267 -0.5070507071 -4.9658660643
C -0.0972709648 0.8507704392 -5.9956757798
C -1.0801105946 0.6815655610 -7.1825582699
C -0.3283960756 2.2341308616 -5.3480125487
C 1.3239376827 0.7646380696 -6.5519110455
C 2.1916184018 -0.2468580504 -6.4109472317
O 1.5989232966 1.8870177297 -7.2813084974
H -2.1168242735 0.8480888256 -6.8666711006
H -0.8555437692 1.4124955149 -7.9628116682
H -1.0002627909 -0.3176667393 -7.6255033129
H 0.4020801903 2.4539199630 -4.5612997171
H -0.2378745188 3.0195126860 -6.1002297465
H -1.3322062218 2.2860155148 -4.9143355577
H 3.1689601126 -0.2210198704 -6.8860135997
H 1.9531329793 -1.1480823515 -5.8624000468
H 2.4621041217 1.7901749944 -7.7169755704
C -5.5716684899 1.8453598942 -0.6160711183
C -5.5006154760 3.1846498475 -1.3829140002
C -6.8469946315 1.0718960192 -1.0680787226
C -5.7054547367 2.0764138923 0.8896053182
C -5.9150684133 3.2546831623 1.4989786735
O -5.6717629255 0.8889427667 1.5746062251
H -5.4423541050 3.0049074257 -2.4605906522
H -6.4055897744 3.7725640692 -1.2077899221
H -4.6315612710 3.7804512357 -1.0860744835
H -6.9291630920 0.1131208823 -0.5509087962
H -7.7379115557 1.6659328659 -0.8424070886
H -6.8335258006 0.8914259702 -2.1478785922
H -6.1067681070 3.3045357677 2.5689015583
H -6.0231059916 4.1773404176 0.9440514220
H -5.9577732612 1.0435750796 2.4909948820
