151
# extracted from Terachem optimization
Fe 0.1650171946 0.0391200354 0.0405094547
N 0.3232863105 2.0182195200 0.1999360466
C 1.5982288416 2.4451605524 0.4016296111
C 1.9034609905 3.8008912908 0.5091916925
C 0.8909284982 4.7645379518 0.4083490184
C -0.4131820059 4.2999729807 0.1856446447
C -0.6532440634 2.9321542921 0.0938685011
H 2.9215673605 4.1414186378 0.6522692945
H -1.6534185494 2.5468811524 -0.0626951548
H -1.2333099092 5.0028120447 0.1222474732
N 2.0889852503 0.1448477143 0.3391200707
C 2.5833503669 1.3506567975 0.5016797082
C 3.9830682799 1.6035739677 0.7616497657
C 4.9075781114 0.6337902349 0.5429303498
C 4.4260196201 -0.7333810909 0.1337292046
C 2.9931193977 -0.9903361866 0.6027011414
H 4.5368491820 -0.8435742134 -0.9540524106
H 5.0801969373 -1.4950607951 0.5648613239
H 4.3009593889 2.5882820677 1.0778991170
H 2.9788346303 -1.1690420700 1.6890286622
H 2.5828809149 -1.8767428563 0.1192980429
C 6.4091036982 0.9176528120 0.6514270106
N 6.6124062554 2.2782211390 1.1691620249
N 6.9710791894 -0.0888007887 1.5525419626
C 7.1247227828 0.6978350610 -0.7439340528
O 7.0167842955 -0.6379135966 -1.1957545386
C 6.6209117864 1.5851984998 -1.8761187500
H 7.5461581451 2.3561680129 1.5673438096
H 6.5577776170 2.9764590982 0.4286218924
H 7.9849026526 0.0218462550 1.6072037074
H 6.6151938918 0.0459672926 2.4987139414
H 8.1807897048 0.9515389054 -0.5425466327
H 7.3563935456 -1.2136843618 -0.4889465795
H 6.7402137686 2.6498967426 -1.6543134511
H 7.2012810997 1.3682392107 -2.7764973809
H 5.5661939674 1.3866753612 -2.0995247353
C 1.2128625550 6.2665451491 0.4964897918
N 2.6348262782 6.4256042708 0.8370989815
N 0.9072035902 6.8325845064 -0.8170400225
C 0.2648098246 7.0103683260 1.5148590854
O -1.0837816664 7.0085906849 1.0757542401
C 0.2717486029 6.4562010907 2.9342459336
H 2.9486386870 7.3544371843 0.5621534889
H 2.7918033061 6.3552776104 1.8428362948
H 1.0935134341 7.8372624711 -0.8140920706
H 1.5075890528 6.4282046786 -1.5345625490
H 0.6519064017 8.0440530991 1.5379903353
H -1.0924573587 7.3717855538 0.1724580558
H 1.2691333640 6.4837174095 3.3846210252
H -0.3873209504 7.0680062400 3.5553379393
H -0.1043671144 5.4276645842 2.9606666965
N 0.0272865252 -1.9470146644 0.0564103326
C -0.1695503924 -2.4823651989 1.2898925848
C -0.3345191729 -3.8546544829 1.4688188475
C -0.3001817599 -4.7213101042 0.3673569843
C -0.1014444811 -4.1440382784 -0.8941820704
C 0.0624281124 -2.7661678930 -1.0051628654
H -0.5084761246 -4.2799807056 2.4495673311
H 0.2324068235 -2.2966354954 -1.9663381119
H -0.0412316334 -4.7753873164 -1.7722521795
N -0.1139861116 -0.2279756119 1.9830404888
C -0.1904595524 -1.4814625191 2.3758894943
C -0.2739727921 -1.8792482625 3.7629210409
C -0.5971683526 -0.9737879502 4.7213180602
C -0.7805095830 0.4600695462 4.3024036040
C 0.0349732687 0.7830832206 3.0495676772
H -1.8534079798 0.6572388893 4.1661684679
H -0.4649588469 1.1268248978 5.1087877043
H -0.1150137178 -2.9147884359 4.0335188435
H 1.1062858693 0.8334443987 3.2991243151
H -0.2571051555 1.7555832838 2.6541541442
C -0.8308585944 -1.4010762961 6.1759468085
N -0.3907541642 -2.7942200730 6.3484482649
N -0.0725878541 -0.4810788633 7.0230207284
C -2.3504071126 -1.1989743710 6.5741388699
O -2.7434175607 0.1540940254 6.4543001328
C -3.3499330441 -2.0189803103 5.7669500151
H -0.0882352724 -2.9442045171 7.3081339952
H -1.1446455278 -3.4565241658 6.1741007533
H -0.2517657032 -0.6855390996 8.0072103567
H 0.9295289423 -0.6021410647 6.8781172395
H -2.3963776962 -1.5242641625 7.6282456017
H -2.1383430796 0.6827236468 7.0028495123
H -3.2137430660 -3.0959618997 5.9043560123
H -4.3578800601 -1.7695606002 6.1081250726
H -3.2892517751 -1.7885147734 4.6971173119
C -0.5269958923 -6.2344024689 0.5450347160
N -0.4760158974 -6.5498896564 1.9811742340
N -1.8473995350 -6.5187987549 -0.0194202676
C 0.4902073751 -7.0965252169 -0.2947571808
O 0.2985287237 -6.9217121144 -1.6898807163
C 1.9628847839 -6.8312934903 -0.0072494189
H -0.9253794247 -7.4485654065 2.1476711719
H 0.4860377698 -6.6455499417 2.3076907521
H -2.0576033899 -7.5141253712 0.0792845787
H -2.5731543710 -6.0183498581 0.4921586029
H 0.2589048887 -8.1385979303 -0.0119610022
H -0.6459743148 -7.0781196854 -1.8687976361
H 2.2178926086 -7.0203617201 1.0402834060
H 2.5689439956 -7.5021614006 -0.6212441770
H 2.2398277975 -5.8027193798 -0.2621800141
N -1.8134673240 -0.0061583090 -0.4260340209
C -2.0958721978 0.1411644196 -1.7483140874
C -3.4022473681 0.0924316140 -2.2298130961
C -4.4746847338 -0.1095650667 -1.3503855634
C -4.1615741173 -0.2624671262 0.0067375352
C -2.8350434054 -0.2003161370 0.4239289729
H -3.6154127204 0.1875347581 -3.2873688912
H -2.5875952946 -0.3067127637 1.4727854463
H -4.9542494667 -0.3920747698 0.7326119177
N 0.2402323481 0.2805196417 -1.9401096782
C -0.8989213326 0.3424501333 -2.5873994496
C -0.9972827148 0.5963269731 -4.0095386556
C 0.0899716952 0.4563149841 -4.8081039559
C 1.4043156485 0.1176756185 -4.1549627163
C 1.4521795041 0.6198215351 -2.7117715245
H 1.5706176313 -0.9669263599 -4.2202242559
H 2.2266255598 0.5715303651 -4.7130499924
H -1.9535817190 0.8568358722 -4.4441912157
H 1.5508857260 1.7161807132 -2.6966801045
H 2.3180902698 0.2028697766 -2.1990028632
C -0.0131003817 0.5853461446 -6.3326810806
N -1.3594706482 1.0609392696 -6.6892320802
N 1.0200651169 1.5320388466 -6.7530448941
C 0.3399863340 -0.7860349438 -7.0376438261
O 1.6635135559 -1.1966273779 -6.7517970198
C -0.5670942200 -1.9547564129 -6.6714525016
H -1.3254082656 1.5474519650 -7.5825454520
H -2.0153595609 0.2899084558 -6.8050994775
H 1.0380998485 1.5970618915 -7.7720838894
H 0.8060788562 2.4671683436 -6.4071576652
H 0.2242304583 -0.5727741168 -8.1148145877
H 2.2596021631 -0.4813899507 -7.0326379020
H -1.6089346821 -1.7807969836 -6.9565001202
H -0.2225921238 -2.8432276603 -7.2065768826
H -0.5253852220 -2.1712524286 -5.5978314353
C -5.9203403866 -0.2086648378 -1.8692353235
N -5.9330442956 0.1512366958 -3.2948894681
N -6.3359709927 -1.5975316216 -1.6642000964
C -6.9198176643 0.6636950636 -1.0177585785
O -7.0333264369 0.1812557261 0.3113929518
C -6.5783466842 2.1459032096 -0.9283326129
H -6.7825802083 -0.2046061948 -3.7291751954
H -5.9451959308 1.1630038304 -3.4274952341
H -7.2931084631 -1.7232396183 -1.9997313315
H -5.7534826855 -2.2316133823 -2.2098000853
H -7.8864221507 0.5561871543 -1.5405607859
H -7.2465418486 -0.7671014172 0.2511001942
H -6.5383762587 2.6194629908 -1.9143998747
H -7.3540552157 2.6536750058 -0.3496466320
H -5.6227979547 2.3045870545 -0.4166215816
