160
# extracted from Terachem optimization
Fe -0.8379417781 -0.7648257701 -0.6538280148
N -0.5228399447 1.3894178455 -1.0167377007
C 0.7322510045 1.7196611208 -1.1491852043
N 0.9741609846 3.0050313009 -1.4768607990
C -0.2776650959 3.7742005013 -1.4091027868
C -1.3153741690 2.6100632065 -1.2621515200
H -2.0328774342 2.7613249459 -0.4493799609
H -1.9013087581 2.4899589119 -2.1799203947
H -0.4182523449 4.3017353573 -2.3556601170
H 1.8458087234 3.4926345300 -1.3106837767
N 1.4211675628 -0.5314401633 -1.0123144733
C 1.7880079343 0.6964201891 -1.0054459015
C 3.2623378723 0.9342301997 -0.8276833457
C 3.7693054918 -0.4785081861 -0.3944073849
C 2.6115285889 -1.3882499031 -0.8970515465
H 2.3854330241 -2.2382529790 -0.2616356673
H 2.8260301064 -1.7868249850 -1.8981903286
H 4.7001474662 -0.7188156133 -0.9154882760
H 3.7145204616 1.2619631878 -1.7740729282
H 3.4706664512 1.7029541935 -0.0771438351
C 4.0179709391 -0.5439307720 1.1441680287
N 4.7822910209 0.6246664516 1.5504954724
O 2.7252866850 -0.4880656613 1.7831309682
C 4.6813945095 -1.8835083156 1.6993347435
N 3.7638071226 -3.0393860260 1.6018053892
C 5.9955685927 -2.2329432314 0.9961232600
N 4.9760990226 -1.5923016713 3.1084774379
H 5.2891686724 0.3775410171 2.4040499261
H 5.4696623135 0.8913842414 0.8490198977
H 2.6656975082 0.3352948233 2.3086633878
H 2.8280924924 -2.6848085792 1.7954013069
H 3.7207829850 -3.4210165593 0.6570063277
H 6.7078752154 -1.4061965801 1.0573245908
H 6.4467812739 -3.1074046614 1.4757987732
H 5.8402992536 -2.4838520940 -0.0583135634
H 4.1032480824 -1.5780815702 3.6342751798
H 5.5301245238 -2.3526857428 3.4987982092
C -0.1894040017 4.8600128140 -0.2971391728
N -0.2339447727 4.2754191986 1.0360294280
O 1.1155131435 5.4588279869 -0.4512349082
C -1.2125036908 6.0555301577 -0.5016043274
N -0.9808176490 6.8079183000 -1.7338918545
C -2.6728393515 5.5868489094 -0.4956137346
N -1.0009800377 6.9056136687 0.6759434931
H -0.5040203358 5.0360413226 1.6698370182
H -0.9575021362 3.5649611582 1.1051591661
H 1.5775378838 5.2875440078 0.3869617606
H 0.0131833262 6.9897369809 -1.8597676138
H -1.3273179705 6.3340195450 -2.5651691218
H -2.9193662040 5.0708857528 0.4369724935
H -3.3271146696 6.4593763452 -0.5857545574
H -2.8969110291 4.9284228595 -1.3428658371
H -0.0996075628 7.3738265327 0.5820080325
H -1.6991227191 7.6479530409 0.6725394918
N -0.5136088647 -2.7413354226 0.1882347791
C -0.1592403711 -2.7116233000 1.4445807249
N 0.1158059636 -3.9047847126 2.0084063727
C 0.0993659349 -4.9604034755 0.9818287389
C -0.5145023495 -4.1613772420 -0.2225620172
H 0.0194559821 -4.2796254368 -1.1687571209
H -1.5479504308 -4.4785217439 -0.4012552192
H -0.5980565474 -5.7331840637 1.3115535945
H 0.7350051705 -4.0324928674 2.8014694045
N -0.5023454555 -0.3811855519 1.5651397411
C -0.1405634317 -1.4363252322 2.1942440334
C 0.2665635155 -1.2441558457 3.6267747510
C -0.1407737219 0.2356367446 3.8884231660
C -0.4071406868 0.7861401624 2.4548536138
H 0.3976995669 1.4285202481 2.0882012338
H -1.3407484097 1.3524627899 2.3768903768
H -1.0882494633 0.2290787033 4.4364889515
H -0.2298445912 -1.9550476947 4.2960849643
H 1.3467258196 -1.3881059413 3.7337577685
C 0.8910270464 1.0184979752 4.7384192861
N 1.3631735607 0.1790121234 5.8269926170
O 2.0521252885 1.2981229983 3.9008498139
C 0.3892219601 2.4299798588 5.2572545839
N 0.0846910522 3.3853345337 4.1862128563
C -0.8543902201 2.3070473186 6.1486680569
N 1.4917106327 2.9227717108 6.0901720392
H 1.6695292798 0.7989288427 6.5815109096
H 0.6380789035 -0.4317058328 6.1940191110
H 2.8044129360 0.9504659002 4.4112929979
H 0.8101706205 3.3755844785 3.4713865873
H -0.8011568787 3.1743064601 3.7334120622
H -0.6790711838 1.6280617860 6.9862760978
H -1.1046770352 3.2928642325 6.5521166099
H -1.7286105961 1.9559103996 5.5894918259
H 2.2643451546 3.2075418343 5.4897242090
H 1.1888724635 3.7637643844 6.5785642775
C 1.5128602351 -5.6461096155 0.8464481461
N 2.3322077591 -5.0175605162 -0.1902858026
O 2.1827747526 -5.4934331442 2.1012772259
C 1.3851271793 -7.2144268414 0.6402357937
N 0.7795568062 -7.9010019413 1.7794695299
C 0.5774915353 -7.5595013673 -0.6171547710
N 2.7695910811 -7.6616426177 0.4385300074
H 3.0837241460 -5.6970182075 -0.3638995350
H 1.8167356098 -4.9782462920 -1.0668350200
H 2.9200989853 -4.8475527351 2.0043993966
H 1.1472019151 -7.5430450120 2.6584777946
H -0.2354841189 -7.8447254252 1.7993655575
H 1.0590277823 -7.1711875367 -1.5189428516
H 0.5069274207 -8.6473655292 -0.7118641817
H -0.4472234212 -7.1719622771 -0.5682205168
H 3.2603388327 -7.6002265331 1.3305873557
H 2.7608740484 -8.6507929007 0.1932813158
N -2.9932060797 -0.5479061390 -0.7707310838
C -3.4683197292 -0.7959072356 -1.9595040748
N -4.8117960769 -0.8198171943 -2.0691838163
C -5.4070442661 -0.3038582313 -0.8247689507
C -4.1583351211 -0.3563470310 0.1178118538
H -4.0289969250 0.5424561840 0.7269559704
H -4.2281117360 -1.2043650898 0.8091237039
H -6.1823747672 -0.9968693146 -0.4906335900
H -5.3143119543 -0.6557001771 -2.9336011697
N -1.3068689765 -1.2185957834 -2.8251794912
C -2.5540840680 -1.0790124070 -3.0887515557
C -2.9311987928 -1.1585144512 -4.5384390683
C -1.6051161688 -1.6292268249 -5.2030845350
C -0.5540967057 -1.4016040222 -4.0796370760
H 0.0242932370 -0.4888930897 -4.2456155705
H 0.1463671661 -2.2328735521 -3.9560786360
H -1.6808401603 -2.7018774482 -5.4104677918
H -3.7761763761 -1.8333132876 -4.7128074232
H -3.2312590332 -0.1694606207 -4.9056572185
C -1.3311349007 -0.8799725191 -6.5355468825
N -2.5538099489 -0.8762294921 -7.3261871663
O -1.0346050227 0.4951932635 -6.2134566874
C -0.0818451570 -1.3981307073 -7.3639293565
N 1.2106130743 -1.1655346810 -6.7066157868
C -0.1864112884 -2.8917453682 -7.6937356177
N -0.1490595428 -0.6462650485 -8.6204915897
H -2.2800973110 -0.7520528562 -8.3051152749
H -3.0560625102 -1.7584353030 -7.2587004633
H -1.7992386227 0.9932321329 -6.5496103089
H 1.2550971359 -0.2116556651 -6.3534400967
H 1.3806022824 -1.8057517414 -5.9341266925
H -1.1308940077 -3.1216009868 -8.1931410034
H 0.6320375149 -3.1725618222 -8.3633573445
H -0.1001332069 -3.5166926640 -6.7975533439
H 0.0467048338 0.3360134631 -8.4296064472
H 0.5903944418 -0.9717384715 -9.2408389382
C -6.0999031383 1.0667591515 -1.0944442400
N -5.1280482500 2.1291024169 -1.3132030292
O -6.8187739153 0.8890213761 -2.3347118798
C -7.2064194760 1.4338811604 -0.0210255770
N -8.3287289401 0.4988011034 -0.0008780196
C -6.6319673227 1.5192636119 1.3984965476
N -7.6534671163 2.7762925218 -0.4150811416
H -5.6198046708 3.0053420719 -1.1078948246
H -4.3505325144 2.0641725890 -0.6625047292
H -6.4408277761 1.5482376237 -2.9415499635
H -8.6387028247 0.2862415851 -0.9472244909
H -8.1165111578 -0.3763410478 0.4727845864
H -5.8138919579 2.2433803985 1.4528701073
H -7.4200454236 1.8410833126 2.0860722439
H -6.2732702489 0.5462887689 1.7529086392
H -8.2032968604 2.6977514273 -1.2708034454
H -8.2975210937 3.1258522892 0.2933184666
