163
# extracted from Terachem optimization
Fe 0.2890402943 0.2098333791 0.2138812294
N 0.4794751459 2.2265222681 0.1723204810
C 1.7138542783 2.6391844575 0.2380694912
S 2.2750239370 4.2958381670 0.0684412407
C 0.7208310440 5.2761611375 0.4068737944
C -0.4954990058 4.4709411329 0.0639279308
C -0.5728725062 3.1345150584 -0.0373998352
H 0.7291773407 5.5353907016 1.4724463449
H -1.5138268563 2.6512599919 -0.2622765868
H -1.4017785955 5.0483825579 -0.1038778714
N 2.2987234396 0.3520241379 0.3298588859
C 2.7428990444 1.5684615974 0.4008625902
S 4.3855454350 2.1166571421 0.7083391381
C 5.3847644960 0.5441355684 0.6295488361
C 4.6176405155 -0.5336336235 -0.1245353024
C 3.2180214255 -0.7902388178 0.4380313152
H 5.5237621156 0.2370509476 1.6696176010
H 4.5392767886 -0.2648103676 -1.1853622687
H 5.1904134316 -1.4662463283 -0.0675449308
H 3.2771784151 -1.0824237137 1.4959805947
H 2.7476105132 -1.6228581039 -0.0900709122
C 6.7892503121 0.9113718838 0.0147180166
N 6.7712832347 1.3401824348 -1.3698191818
C 7.7608264097 -0.2466621900 0.2437916833
C 8.3863882366 -0.9081298607 -0.8265774222
C 9.2890582489 -1.9385455754 -0.6065022540
C 9.6044726871 -2.3261272705 0.7080605037
O 10.4948921185 -3.3280940405 0.8515577482
C 9.0004280474 -1.6653038256 1.7931066133
C 8.0925447332 -0.6421998169 1.5527846947
H 7.1634529909 1.7672665501 0.5936097624
H 6.3359980961 0.6717008093 -1.9985854344
H 6.3279334994 2.2453006287 -1.4893163791
H 8.2011335193 -0.5798970608 -1.8428199260
H 9.7846205321 -2.4409987611 -1.4304558929
H 10.6969992526 -3.4825720005 1.7898407007
H 9.2584772641 -1.9414555017 2.8126518601
H 7.6633930696 -0.1216059989 2.4061509216
C 0.8107466945 6.6163623748 -0.4286546418
N 2.0964590614 7.2840040154 -0.3888770782
C -0.3057849942 7.5492719750 0.0161617133
C -1.3452312317 7.8893494135 -0.8648154262
C -2.3547578912 8.7656296860 -0.4887418009
C -2.3406867503 9.3341688396 0.7953090830
O -3.3497799344 10.1785604597 1.1033101353
C -1.3099573664 9.0052346870 1.6909846112
C -0.3118217956 8.1199929774 1.2990785966
H 0.6353775547 6.3400653852 -1.4744479911
H 2.4069528894 7.5545446811 0.5388693627
H 2.8385128972 6.8065447060 -0.8902733190
H -1.3518417368 7.4795942317 -1.8720387838
H -3.1502083461 9.0409282071 -1.1731795403
H -3.2145892571 10.5709629219 1.9818573340
H -1.2893762632 9.4475873974 2.6841586737
H 0.4804122996 7.8916937691 2.0092393525
N 0.2105323053 -1.8060959398 0.4006766711
C 0.2204177231 -2.2221198746 1.6360762841
S 0.0058269638 -3.8746716170 2.1894553856
C 0.3646941692 -4.8636115972 0.6453442066
C 0.0951890734 -4.0478736760 -0.5822532215
C 0.0254408954 -2.7096863732 -0.6601629024
H 1.4187337004 -5.1628002219 0.6927471846
H -0.1617280617 -2.2166887661 -1.6046539380
H -0.0508374795 -4.6209486348 -1.4951723400
N 0.2844946476 0.0637762730 2.2302509248
C 0.3442592845 -1.1533774256 2.6738146551
S 0.5802535479 -1.7055176247 4.3267785862
C 0.4552218397 -0.1349967152 5.3240420415
C -0.2761111442 0.9380366266 4.5286057416
C 0.3433133892 1.2041961915 3.1552635830
H 1.4872701448 0.1782753960 5.5029912695
H -1.3299656616 0.6612989707 4.4012746878
H -0.2540469573 1.8692958340 5.1061660997
H 1.3959213087 1.5041072619 3.2591158342
H -0.1747779515 2.0308498060 2.6649878990
C -0.2086557189 -0.5076020635 6.7047156681
N -1.5893268265 -0.9427354268 6.6382341306
C -0.0199499068 0.6491549258 7.6872373157
C -1.1163014213 1.2979285682 8.2807352279
C -0.9351575924 2.3238167904 9.1967859044
C 0.3652012083 2.7192211960 9.5591500123
O 0.4703377414 3.7137026942 10.4628967300
C 1.4755907700 2.0720302457 8.9866648977
C 1.2741817783 1.0534350585 8.0646018704
H 0.3610758966 -1.3609168247 7.0983723121
H -2.2033942414 -0.2845795191 6.1677582245
H -1.6893120867 -1.8560249501 6.2071358648
H -2.1225023483 0.9620684211 8.0584418267
H -1.7792188627 2.8161716544 9.6680351578
H 1.3999589267 3.8743203584 10.6979182043
H 2.4835409590 2.3546189618 9.2807528419
H 2.1458357915 0.5429230387 7.6608550464
C -0.5245611053 -6.1715394703 0.7016250788
N -0.5845871918 -6.8199735422 1.9959284407
C -0.0514061259 -7.1359855442 -0.3762594433
C -0.8699267379 -7.4349735616 -1.4777771820
C -0.4685019938 -8.3381184441 -2.4531282719
C 0.7778954824 -8.9765359290 -2.3396236147
O 1.1129019261 -9.8454913377 -3.3172827150
C 1.6114076027 -8.6891389901 -1.2452409531
C 1.1954715821 -7.7763171223 -0.2833523783
H -1.5477521280 -5.8603021844 0.4637801514
H 0.3114149463 -7.1010452473 2.3807036720
H -1.1393645857 -6.3322427702 2.6912372657
H -1.8501887066 -6.9715989961 -1.5595892571
H -1.1056862113 -8.5825905696 -3.2963976470
H 1.9557368949 -10.2853161217 -3.1159020914
H 2.5739690468 -9.1856603911 -1.1489486834
H 1.8545101234 -7.5806371633 0.5598378222
N -1.7386741781 0.1384719969 -0.0156312320
C -2.1278134817 0.1824112323 -1.2600951945
S -3.7673381954 -0.0281369047 -1.8543543588
C -4.7773212577 0.3296299400 -0.3260428547
C -4.0018232294 -0.0330533374 0.9046096547
C -2.6659472637 -0.1077191268 1.0118981111
H -5.0153447985 1.4005188738 -0.3383611564
H -2.2021283764 -0.3506926508 1.9582128183
H -4.5986439938 -0.2366169095 1.7907566409
N 0.1687687081 0.2937200695 -1.8044965143
C -1.0410043495 0.3609198695 -2.2691320889
S -1.5649466352 0.6681508568 -3.9185081490
C 0.0232091905 0.6034211511 -4.8929500334
C 1.0943840628 -0.1443786495 -4.1101699661
C 1.3217404240 0.4199100409 -2.7060705636
H 0.3246693807 1.6463043368 -5.0233413530
H 0.8340704224 -1.2074894903 -4.0355263135
H 2.0357242414 -0.0786500695 -4.6676644116
H 1.6001600223 1.4819611490 -2.7576361772
H 2.1516385194 -0.0993371191 -2.2227434284
C -0.3196399043 -0.0094135838 -6.3044408177
N -0.7352155774 -1.3977359161 -6.2987565119
C 0.8463970502 0.2363407710 -7.2624328107
C 1.5185757791 -0.8248100470 -7.8932711774
C 2.5540633088 -0.5903519324 -8.7858193292
C 2.9360240328 0.7304157981 -9.0858988682
O 3.9430425832 0.8880140586 -9.9662008106
C 2.2640763010 1.8067100753 -8.4766374366
C 1.2364035355 1.5516714750 -7.5789216097
H -1.1762609579 0.5631851839 -6.6868729556
H -0.0701497513 -2.0230463297 -5.8534821292
H -1.6484358812 -1.5276800720 -5.8756554823
H 1.1939758912 -1.8441618989 -7.7193807283
H 3.0654438908 -1.4062631439 -9.2855276587
H 4.0961622716 1.8289561298 -10.1577873454
H 2.5359034155 2.8300940096 -8.7236734127
H 0.7070352781 2.3975827310 -7.1460861020
C -6.1285564089 -0.4797079761 -0.4540875220
N -6.7526523404 -0.4273390152 -1.7616093036
C -7.0870260464 -0.0177148854 0.6340045995
C -7.4428940342 -0.8792858893 1.6849154193
C -8.3421064504 -0.4881785882 2.6677816989
C -8.9184511050 0.7923721853 2.6133389968
O -9.7865676004 1.1156082167 3.5950339103
C -8.5733265186 1.6693432022 1.5702996329
C -7.6655034206 1.2623308140 0.6003882263
H -5.8796764759 -1.5307430789 -0.2708625001
H -6.9409053259 0.5075770653 -2.1088948955
H -6.2914843379 -0.9858966658 -2.4720779470
H -7.0285693217 -1.8840145349 1.7196686071
H -8.6309899278 -1.1574133553 3.4712438462
H -10.1822403164 1.9886539653 3.4342932073
H -9.0222790747 2.6583806740 1.5194928320
H -7.4254303648 1.9554002338 -0.2029717976
