133
# extracted from Terachem optimization
Fe -0.0269544420 0.0227845900 -0.0043413736
N 0.3308290776 2.0073101712 -0.1706235928
C 1.6352448413 2.3486217508 -0.0064962668
C 2.0761060756 3.6700309195 -0.1174869230
C 1.1651927385 4.6902721538 -0.3957891764
C -0.1717628214 4.3233301401 -0.5817616465
C -0.5420260489 2.9888536836 -0.4580430151
H 3.1280379530 3.9049672385 -0.0208589289
H -1.5763178211 2.6955540217 -0.5922302848
H -0.9181045569 5.0691820546 -0.8311259307
N 1.9700912257 0.0480195786 0.2698364955
C 2.5387962013 1.2103667089 0.2782824979
C 3.9978169515 1.4702123229 0.5502526917
C 4.7646778808 0.2513491629 1.0931969044
C 4.2772484067 -0.9914437420 0.3391797515
C 2.7694457295 -1.1603165958 0.5275599624
H 4.5144100195 0.1287894414 2.1548495181
H 4.4940953520 -0.8968439022 -0.7339249774
H 4.7705738956 -1.9010857066 0.6875941553
H 4.4748161461 1.8121161841 -0.3800912807
H 4.0810150482 2.3021290468 1.2562432237
H 2.5407211075 -1.4816021516 1.5524105402
H 2.3828340573 -1.9431426745 -0.1305437573
C 6.3017739727 0.5499352181 1.0825517542
N 6.7638684051 0.7746211350 -0.2819971645
O 6.4837362013 1.7680684991 1.8005186952
C 7.1055266929 -0.5098632844 1.8570593568
C 7.5938902700 -0.3536295169 3.0836515993
Cl 7.4206992039 -2.0159217730 0.9749238040
H 7.7778434620 0.8945384840 -0.2738404183
H 6.5873994678 -0.0388377988 -0.8682367029
H 6.6375921984 2.4523564607 1.1280808633
H 8.1735483308 -1.1280709971 3.5735059723
H 7.4280793010 0.5801746264 3.6076370455
C 1.5899540645 6.1534367916 -0.6124105406
N 3.0450780317 6.2677295427 -0.5476267682
O 1.1790008083 6.5206365756 -1.9146961657
C 0.8852363585 7.0999298924 0.3705978950
C 0.2731448366 6.7554339039 1.5031515069
Cl 1.0795899944 8.7929108105 -0.0409819343
H 3.2928543158 7.2112622137 -0.8480239164
H 3.3698205819 6.1876378066 0.4164432495
H 1.8413805417 6.1561490558 -2.5290008514
H -0.1221853344 7.5027586133 2.1817026419
H 0.1585249600 5.7148406832 1.7860617792
N -0.2684560525 -1.9737487663 0.2691208684
C -0.3631635475 -2.3275524276 1.5771187216
C -0.4788056286 -3.6604671737 1.9774884044
C -0.5121297529 -4.6787556158 1.0226487824
C -0.4689699203 -4.2976577423 -0.3224927049
C -0.3385272772 -2.9519585771 -0.6500952708
H -0.5707493626 -3.9157045448 3.0251916611
H -0.2876602205 -2.6404339312 -1.6865875531
H -0.5335918763 -5.0403185766 -1.1096403596
N -0.2840570503 -0.0218084676 1.9891821794
C -0.3545971412 -1.1944557224 2.5315117940
C -0.4334788266 -1.4675548742 4.0110041057
C -0.1505208651 -0.2384181016 4.8922592318
C -0.8443033040 0.9696065719 4.2516076453
C -0.3112273524 1.1832160691 2.8332101725
H 0.9312116406 -0.0502654278 4.8888303240
H -1.9307263669 0.8075776187 4.2080335019
H -0.6813556481 1.8874098542 4.8194993672
H -1.4336698657 -1.8607232848 4.2462671226
H 0.2701077201 -2.2669747651 4.2622447065
H 0.7137616523 1.5765839849 2.8603409827
H -0.9117897386 1.9282179324 2.3029548619
C -0.4827822437 -0.5821215411 6.3861681083
N -1.8995522197 -0.8972490810 6.5295151801
O 0.2547896612 -1.7635133276 6.6877447533
C 0.0219512343 0.4910637414 7.3647754997
C 1.0829528770 0.3720985427 8.1568121166
Cl -0.9667674640 1.9623933680 7.4486760366
H -2.1087456628 -1.0524144864 7.5171399795
H -2.4787900029 -0.1082451832 6.2486891682
H -0.3969158834 -2.4826660266 6.7325853355
H 1.3725142857 1.1570443003 8.8466258042
H 1.6704346991 -0.5380453513 8.1325540101
C -0.7212389428 -6.1552314290 1.4072058009
N -0.7659151883 -6.2899427153 2.8623708376
O -1.9793317182 -6.5461290271 0.8956005668
C 0.3377149627 -7.0705240301 0.7756652729
C 1.5328928625 -6.6991183878 0.3170533936
Cl -0.0801708026 -8.7707489102 0.8502995933
H -1.0570204087 -7.2446696880 3.0756774675
H 0.1663149355 -6.1831980917 3.2636604003
H -2.6495725872 -6.1933972006 1.5081319469
H 2.2582620779 -7.4284741390 -0.0250924709
H 1.8218685835 -5.6543515452 0.2799541216
N -1.9968627766 0.2027757803 -0.4244993988
C -2.2968200089 0.1560270503 -1.7483461274
C -3.6124002947 0.2223620555 -2.2140181468
C -4.6678535342 0.3407664641 -1.3075824232
C -4.3463981481 0.3728630156 0.0536715921
C -3.0148982935 0.3040581246 0.4472818317
H -3.8254167713 0.1465184074 -3.2727118071
H -2.7567183857 0.3215337326 1.4994911137
H -5.1280124114 0.4337488739 0.8025493052
N 0.0086367548 -0.1238831901 -2.0142573093
C -1.1193158980 0.0051531805 -2.6345820933
C -1.3029669320 0.0070205743 -4.1304017517
C 0.0122404170 0.1022503683 -4.9249475017
C 1.0612181850 -0.7667078743 -4.2224364192
C 1.2526109145 -0.2976571594 -2.7802140837
H 0.3562549544 1.1441416833 -4.8987407879
H 0.7439424738 -1.8193011888 -4.2163033639
H 2.0290901488 -0.7287525401 -4.7261908356
H -1.8386752689 -0.9084431082 -4.4220382965
H -1.9578792535 0.8393756512 -4.4059045442
H 1.7826060057 0.6636083401 -2.7492018835
H 1.8727311161 -1.0089146371 -2.2276972800
C -0.2633762870 -0.1831123808 -6.4401489133
N -0.7803485081 -1.5354739356 -6.6131628685
O -1.2865112419 0.7230996544 -6.8431862462
C 0.9537403868 0.1474527378 -7.3235909018
C 1.0850233831 1.2450782176 -8.0621610501
Cl 2.2227864771 -1.0910983090 -7.3621135595
H -0.8830415800 -1.7288277640 -7.6105824857
H -0.1181471937 -2.2272967656 -6.2675463025
H -2.0986326958 0.1947139563 -6.9137072728
H 1.9561152520 1.4178641739 -8.6842807508
H 0.2919335021 1.9833132666 -8.0624358483
C -6.1459061956 0.2965395014 -1.7369103803
N -6.2446464886 0.1429126721 -3.1867921480
O -6.7141290129 -0.8480595833 -1.1337349096
C -6.9222034925 1.5185342670 -1.2238117044
C -6.3958270507 2.6920499816 -0.8736261060
Cl -8.6606446427 1.3174173669 -1.2795496909
H -7.2187152019 -0.0630464932 -3.4119957698
H -6.0271867774 1.0220113391 -3.6569761727
H -6.4306961086 -1.6145958752 -1.6637303007
H -7.0214549481 3.5376174877 -0.6114360397
H -5.3215124263 2.8405654412 -0.8497382584
