160
# extracted from Terachem optimization
Fe 0.0617334966 -0.1999682329 -0.0760949171
N 0.7033227446 1.7726129323 -0.3074064015
C 1.9387394966 2.0966063711 -0.5519812143
N 2.1409884628 3.3550504258 -0.9933982774
C 0.8634665257 4.1033953757 -0.9561054869
C -0.1166648647 2.9947561676 -0.4461639415
H -0.5702966032 3.2253346804 0.5212193952
H -0.9269138022 2.8141878266 -1.1575390663
H 0.5940467373 4.3497449712 -1.9898251809
H 3.0048051621 3.8456910643 -0.7880264378
O 2.4607361268 -0.1457629369 -0.0915865853
C 3.0692138866 1.0940820761 -0.4526375217
C 4.1470805975 1.5433926530 0.5088346157
C 4.6419033401 0.7776492532 1.4901674541
C 4.1134973396 -0.6366936275 1.6445916063
C 3.4222335483 -1.1171770062 0.3782731381
H 4.5254296975 2.5462968478 0.3456882668
H 3.5014088359 0.9948112383 -1.4650958671
H 2.8533664698 -2.0325537966 0.5517598861
H 4.1557962251 -1.2939104496 -0.4206974598
H 4.9380172250 -1.3249703793 1.8536188736
H 3.4163281909 -0.6982318846 2.4900130126
C 5.7433616251 1.2979939938 2.4425343513
C 5.6234107573 2.8268059331 2.6355921595
C 5.6264036387 0.6320512911 3.8299868364
C 7.1309030415 0.9709270730 1.7611839165
N 7.3347418360 -0.4317948287 1.5761847297
O 7.2635960036 1.6187345317 0.5332429890
Cl 8.5072254745 1.7061543567 2.8174050398
H 4.5866790034 3.0944908038 2.8632527555
H 6.2564539530 3.1558313290 3.4614123983
H 5.9375104697 3.3776975664 1.7463924893
H 5.6420852598 -0.4618672155 3.7965365232
H 6.4467698287 0.9610620115 4.4715441220
H 4.6877663052 0.9288663613 4.3112240621
H 8.2631797241 -0.5833907251 1.1809002839
H 7.3136921531 -0.9278468972 2.4639934304
H 7.0392562361 0.9620922018 -0.1473388391
C 0.9303825897 5.4994840984 -0.2278400379
C 1.5756781633 6.4992927169 -1.2160770875
C -0.5131139651 5.9621328033 0.0547854895
C 1.7932074510 5.4144885824 1.0764220554
N 1.3726973932 4.3964871923 1.9668767130
O 3.1513583249 5.1759703693 0.8120336430
Cl 1.7436104539 7.1264274537 1.9470878018
H 0.9365163141 6.6103179575 -2.0973831026
H 1.6864887999 7.4875315897 -0.7635475557
H 2.5596738647 6.1680291177 -1.5647421297
H -1.0153578254 5.3664596305 0.8244961140
H -0.5288288379 7.0041050712 0.3793469809
H -1.1116458220 5.8895146114 -0.8607875750
H 2.0313478519 4.3370766348 2.7413050376
H 0.4518605573 4.6009186538 2.3447049894
H 3.5876059841 6.0306582391 0.6584998458
N -0.0224137989 -2.1868653480 0.5626648542
C -0.3901675610 -2.4812253787 1.7738161843
N -0.6830244034 -3.7780026476 2.0089827363
C -0.4364173455 -4.5609427517 0.7740319459
C 0.0961377506 -3.4520802044 -0.1934208643
H 1.1368291526 -3.5921244296 -0.4946840524
H -0.5082340642 -3.3899470126 -1.1015739477
H -1.4119285311 -4.8931883097 0.4009420875
H -0.4402814239 -4.1987334949 2.8999072114
O -0.0992982101 -0.2001602181 2.2449122648
C -0.6112722577 -1.4054831059 2.8162968488
C 0.0041924038 -1.7296954538 4.1553006421
C 0.7630102638 -0.8772155683 4.8572783126
C 0.9981345306 0.5176855153 4.3033388037
C -0.0055060375 0.8683991702 3.2139860657
H -0.2328011700 -2.7111457091 4.5505904135
H -1.7073400973 -1.3075046127 2.9289971406
H 0.2994376040 1.7458337505 2.6394196276
H -1.0029855661 1.0434186950 3.6402044479
H 0.8971402736 1.2537067059 5.1068597973
H 2.0176194611 0.6093945809 3.9070218857
C 1.3845780442 -1.2822832236 6.2138793889
C 1.6168300596 -2.8099612877 6.2748600711
C 2.7459053475 -0.5835468282 6.4122140589
C 0.3515894462 -0.8738571339 7.3388731144
N 0.1227470069 0.5363345859 7.3972746771
O -0.8683795831 -1.5292069172 7.1716974847
Cl 0.9834942989 -1.5057486407 8.9956331181
H 2.0946530568 -3.1571176729 5.3531628596
H 2.2654886644 -3.0603512342 7.1158045312
H 0.6813022155 -3.3571649380 6.4141771607
H 2.6972121783 0.5069680976 6.3276049973
H 3.1534061329 -0.8266215852 7.3965620289
H 3.4590313107 -0.9393007605 5.6606778632
H -0.5203797320 0.7361709320 8.1639586742
H 0.9814491744 1.0430183306 7.6014246327
H -1.4495167529 -0.9101525626 6.6983856308
C 0.3690422836 -5.8943592535 0.9839894243
C -0.5956944439 -6.9070676794 1.6453524333
C 0.7598914834 -6.4313958488 -0.4082657806
C 1.6180546279 -5.6752281640 1.9048180004
N 2.5020983939 -4.6727592077 1.4384405683
O 1.2721045361 -5.3220399274 3.2201476858
Cl 2.5489875495 -7.3522145123 2.0667395827
H -1.4536486716 -7.0788046511 0.9886106912
H -0.1057244280 -7.8688511334 1.8109960155
H -0.9837977446 -6.5491383644 2.6047788967
H 1.4778166825 -5.7908255089 -0.9320964525
H 1.1957104435 -7.4292451560 -0.3298130689
H -0.1324010734 -6.5059329027 -1.0397657467
H 3.2534928228 -4.5493285899 2.1147617164
H 2.9140211207 -4.9365676443 0.5477152015
H 1.1422010384 -6.1388210908 3.7308497035
N -1.9532894222 0.0462689512 -0.7154248099
C -2.2728345094 -0.3382876009 -1.9147410495
N -3.5928030607 -0.4429532703 -2.1791531824
C -4.3667554380 0.0676956543 -1.0262105592
C -3.2085592057 0.4152272783 -0.0270602823
H -3.1651579521 1.4723725721 0.2474985545
H -3.3123456482 -0.1604765459 0.8975537885
H -4.9336264348 -0.7721266622 -0.6087562870
H -3.9457705183 -0.2809800681 -3.1162272165
O 0.0073055595 -0.8485078529 -2.3029949128
C -1.2466267083 -0.6763075694 -2.9730544825
C -1.2065281080 0.4052956900 -4.0334374560
C -0.0733371888 0.9521768729 -4.4958276303
C 1.2559540913 0.4275421466 -3.9888349688
C 1.1037199150 -0.8932538854 -3.2468531367
H -2.1750534818 0.7307909290 -4.3973599622
H -1.5328556316 -1.6428937152 -3.4217552729
H 1.9828850545 -1.1280065984 -2.6449130401
H 0.9178649051 -1.7192193793 -3.9451220949
H 1.9316207783 0.2581186694 -4.8334051765
H 1.7348102265 1.1752950319 -3.3434500648
C -0.0908394525 2.0947863368 -5.5380867051
C -1.3115902193 3.0151829139 -5.3081651251
C 1.1792221939 2.9673942203 -5.4261066243
C -0.1989682247 1.4189667906 -6.9623522109
N 0.9207667806 0.5789973245 -7.2461768735
O -1.3716918130 0.6742777767 -7.0980215582
Cl -0.3764977451 2.7638438855 -8.2612286201
H -1.3339210711 3.3305156646 -4.2585320921
H -1.2402211886 3.9056857503 -5.9349552252
H -2.2560822140 2.5205400596 -5.5454699337
H 2.1120680566 2.4102578590 -5.5559117582
H 1.1516830496 3.7564228048 -6.1804311373
H 1.2235669910 3.4448363082 -4.4399876512
H 0.8027419322 0.1659728421 -8.1712889601
H 1.7897836824 1.1071180508 -7.2665733189
H -1.1569154428 -0.2194279809 -6.7796151281
C -5.4691995089 1.1360813946 -1.3839089372
C -6.6826430523 0.3631018241 -1.9516169108
C -5.9043681108 1.8314672826 -0.0774983644
C -4.9456345404 2.1544450268 -2.4524102138
N -3.7293021756 2.7770673475 -2.0857915206
O -4.7255924591 1.5599937734 -3.7075439453
Cl -6.3069284074 3.4735199539 -2.7547543940
H -7.0816611202 -0.3085237534 -1.1854326447
H -7.4847404932 1.0455176214 -2.2423764842
H -6.4191000094 -0.2500612336 -2.8199674719
H -5.1341753300 2.4901877762 0.3376969727
H -6.8024477797 2.4301931627 -0.2394977061
H -6.1389100951 1.0794053959 0.6844972052
H -3.4197886122 3.3818763300 -2.8445282359
H -3.8482528291 3.3431609249 -1.2506396220
H -5.5525629798 1.5946868689 -4.2170886705
