151
# extracted from Terachem optimization
Fe 0.5761277917 0.4735598377 0.0897513845
O 0.6278277626 2.6814430184 0.0904423183
C 1.9017424429 3.3448164452 0.2582679950
O 1.8582783018 3.8678877079 1.5669075380
C 0.5054766891 4.1865082193 1.7699230500
C -0.2322918616 3.4875779785 0.8932445521
H -1.2867189433 3.4093613826 0.6872865878
H 1.9473715576 4.1718193730 -0.4635065256
O 2.5696083006 1.0304604253 0.4993764996
C 3.0561693734 2.3691511526 0.0454688303
N 4.2145177347 2.8308000868 0.6941587878
C 5.3553698767 1.8834602682 0.6771618824
C 4.8635882592 0.5588248199 1.2983269511
C 3.6379621651 0.0272216241 0.5625703881
H 6.1114355478 2.3218811876 1.3388785840
H 4.0133232975 3.1532253153 1.6373694785
H 3.2567504918 2.2557835832 -1.0247277877
H 3.1885896126 -0.8204243279 1.0801095156
H 3.8871168840 -0.2636103515 -0.4640847530
H 5.6335079045 -0.2181887756 1.2934024524
H 4.6056911010 0.7421604522 2.3481354514
C 5.9551278274 1.7602900451 -0.7254186688
C 5.8101586958 2.8026482642 -1.6555019945
C 6.3436576215 2.6980183722 -2.9365341143
C 7.0747728743 1.5653310573 -3.3130392286
C 7.5684700052 1.4895203064 -4.7348396684
O 6.9615779721 2.0468881837 -5.6392294697
N 8.6879668265 0.7274027917 -4.9451536206
C 7.2584285641 0.5402377424 -2.3792730150
C 6.6973749817 0.6332599662 -1.1045689976
H 5.2784639817 3.7039565996 -1.3668514884
H 6.2034360233 3.4911955908 -3.6638628683
H 9.3472037899 0.5734784319 -4.1945430376
H 9.0796387700 0.7736102373 -5.8782031799
H 7.8100900719 -0.3550714035 -2.6516402632
H 6.8591712681 -0.1867401184 -0.4114101858
C 0.1839009692 5.1451118729 2.8168551229
C 1.2149760329 5.7987340796 3.5139384671
C 0.9101667537 6.7464679671 4.4830210053
C -0.4200265016 7.0644012026 4.7815869767
C -0.6402775282 8.1475987254 5.8137621064
O 0.2802286197 8.8788380700 6.1467367638
N -1.9069036004 8.2814559613 6.3101789182
C -1.4490491614 6.4153036348 4.0822182988
C -1.1541962596 5.4612926457 3.1150731792
H 2.2507005895 5.5800373610 3.2790726004
H 1.6935203262 7.2777662516 5.0126141522
H -2.5883182290 7.5396739855 6.2578533770
H -2.0267729487 8.9639613223 7.0478840554
H -2.4879901511 6.6779635508 4.2567117474
H -1.9664315432 4.9837756427 2.5735683429
O 0.5941798184 -1.7834903640 0.1684264927
C 0.1462861041 -2.3828511097 1.4114872807
O 1.2511276428 -3.1295228503 1.8676324334
C 1.9133231426 -3.5407546246 0.7005231434
C 1.5445381681 -2.7340987482 -0.3039768179
H 1.8134975323 -2.6805548534 -1.3458716831
H -0.6847924241 -3.0624613040 1.1749215312
O 0.5434795577 -0.1172292090 2.1570011350
C -0.2918588926 -1.3225766541 2.4255959621
N -0.2159305211 -1.8410516230 3.7346157771
C -0.4060395560 -0.8440598778 4.8115648079
C 0.6574206197 0.2582262863 4.6047031226
C 0.5121593509 0.8853309936 3.2229281313
H -0.1964167665 -1.3713066342 5.7492181803
H 0.6376708273 -2.3742794034 3.8793586895
H -1.3147961645 -1.0103973140 2.2178463234
H 1.3384959785 1.5571344434 2.9879427804
H -0.4304842898 1.4373895969 3.1460493404
H 0.5930998450 1.0536661260 5.3531932662
H 1.6510938444 -0.1934322600 4.7085583643
C -1.8439146898 -0.3182202747 4.8534503901
C -2.8944357445 -1.0308347562 4.2530920233
C -4.1855617215 -0.5090761477 4.2162765300
C -4.4745844029 0.7160310946 4.8295577949
C -5.8541684670 1.2917430231 4.6643525890
O -6.4676918244 1.1612443502 3.6077260584
N -6.3450451952 1.9977812380 5.7232657032
C -3.4500071594 1.3945983484 5.4986577065
C -2.1493854928 0.8893030356 5.4977458997
H -2.6925356543 -2.0000457766 3.8087039659
H -4.9832419447 -1.0460961545 3.7126124208
H -5.9818479136 1.8515729146 6.6551258942
H -7.3056264970 2.3110614401 5.6536405757
H -3.6527491716 2.3447025467 5.9845482898
H -1.3754550531 1.4558158111 6.0062345641
C 2.8256054533 -4.6720180323 0.7710506483
C 3.3185897343 -5.1219953876 2.0086658944
C 4.2046849110 -6.1909058683 2.0544501851
C 4.5970661395 -6.8455286030 0.8791059688
C 5.5678316776 -7.9920946595 1.0269052825
O 6.2417956758 -8.1152107552 2.0399211098
N 5.6682869899 -8.8464217694 -0.0385591617
C 4.0994094972 -6.3982294807 -0.3528351975
C 3.2212420955 -5.3222058037 -0.4107641122
H 3.0103965111 -4.6341718891 2.9276940646
H 4.6115368994 -6.5415275210 2.9968678480
H 4.9163490088 -8.9358859489 -0.7066571618
H 6.2379196050 -9.6696895219 0.1122851298
H 4.3921225800 -6.8674579113 -1.2865623592
H 2.8295606371 -5.0299462210 -1.3802324358
O -1.6069920809 -0.1318528136 -0.0546033949
C -2.0527159817 -0.4845266199 -1.3894220369
O -2.9319301006 0.5467178948 -1.7758403229
C -3.4859737180 1.0201425212 -0.5799679086
C -2.7028844624 0.6392233516 0.4386010539
H -2.7612720502 0.7783218046 1.5053571141
H -2.6015629716 -1.4346187838 -1.3229189957
O 0.0790621921 0.4873002140 -1.9380007308
C -0.8697677255 -0.6055614870 -2.3449448492
N -1.2977153215 -0.5575010391 -3.6819652016
C -0.2117462622 -0.4403215001 -4.6852390684
C 0.5837948914 0.8388626852 -4.3434125571
C 1.1278442749 0.7683343632 -2.9199079508
H -0.7114787892 -0.2996775181 -5.6502967646
H -2.0008699310 0.1642340339 -3.8233592936
H -0.3260295953 -1.5304219759 -2.1545107313
H 1.5496015925 1.7276527453 -2.6138312671
H 1.8951526765 -0.0104026211 -2.8387274768
H 1.4254529952 1.0088948806 -5.0210408476
H -0.0819571107 1.7037520930 -4.4430575682
C 0.6430312580 -1.7090650724 -4.7507083276
C 0.1498054591 -2.9371862087 -4.2810936009
C 0.9550832746 -4.0733315956 -4.2634564755
C 2.2620512175 -4.0264985210 -4.7646189819
C 3.1263000816 -5.2492504127 -4.6142682717
O 3.0305426628 -5.9635680289 -3.6187057018
N 4.0309261937 -5.4769739942 -5.6064954805
C 2.7357649866 -2.8253893744 -5.3041557280
C 1.9392209569 -1.6793671760 -5.2859075826
H -0.8734957864 -2.9966860183 -3.9244693538
H 0.5788171525 -5.0088172093 -3.8614788718
H 3.9205350053 -5.0610120786 -6.5207235692
H 4.5645857767 -6.3357789669 -5.5543455597
H 3.7457708978 -2.7639912686 -5.6993402832
H 2.3498341014 -0.7616434144 -5.6955416656
C -4.7098949278 1.8059850589 -0.6356348746
C -5.0822801492 2.4634195512 -1.8216824786
C -6.2277261640 3.2481572713 -1.8483530230
C -7.0372109690 3.3688331150 -0.7105728436
C -8.2470919137 4.2642927972 -0.8238891573
O -8.2933977886 5.1417308179 -1.6741736246
N -9.2434014423 4.0607252425 0.0933011515
C -6.6720763415 2.7004292913 0.4660183231
C -5.5180851943 1.9252558635 0.5084539210
H -4.4696564229 2.3675840051 -2.7122893736
H -6.5170556116 3.7856535764 -2.7449184386
H -9.3472343539 3.1696531584 0.5578296455
H -10.0922515483 4.5919509869 -0.0567262081
H -7.2689587825 2.7829706618 1.3687789324
H -5.2838539274 1.3963444736 1.4276542488
