163
# extracted from Terachem optimization
Fe 0.2309413030 0.1783944454 0.1706370632
N 0.4195435601 2.1922299422 0.1128326035
C 1.6542834247 2.6046679458 0.1725694122
S 2.2065974137 4.2643403403 0.0035832905
C 0.6543624062 5.2267198529 0.3915009149
C -0.5574592823 4.4333832408 0.0031586254
C -0.6319305775 3.0980360074 -0.1078299615
H 0.6593254153 5.4267090058 1.4701235547
H -1.5673301441 2.6146215871 -0.3544477468
H -1.4577713137 5.0144954300 -0.1811891368
N 2.2390290427 0.3200492936 0.2651296833
C 2.6853930201 1.5359721736 0.3288129329
S 4.3317312443 2.0854186947 0.6121602919
C 5.3128713699 0.5001991158 0.5852507278
C 4.5563880547 -0.5711277389 -0.1869681303
C 3.1523725133 -0.8282874226 0.3587770845
H 5.4068582024 0.2001306514 1.6324728811
H 4.4927467964 -0.2953068552 -1.2469225424
H 5.1298008021 -1.5029376463 -0.1267550018
H 3.2016448479 -1.1390365948 1.4118380969
H 2.6794397174 -1.6488929697 -0.1861751110
C 6.7464394467 0.8288966174 0.0267728874
N 6.7935905776 1.2434892210 -1.3635692110
C 7.6576514549 -0.3656988648 0.3075193992
C 8.2477602361 -1.1120488453 -0.7219576588
C 9.0681402975 -2.2016662277 -0.4461358298
C 9.3286394074 -2.5650751550 0.8801606695
O 10.1336245868 -3.6412510038 1.0866900396
C 8.7634232083 -1.8193096664 1.9225091803
C 7.9398329283 -0.7348232302 1.6299900601
H 7.1195970752 1.6806818754 0.6119617573
H 6.3909147871 0.5603110308 -1.9987478078
H 6.3344277964 2.1370909643 -1.5118676237
H 8.1042445968 -0.8159981856 -1.7555169819
H 9.5335446515 -2.7691950248 -1.2454067847
H 10.3033045969 -3.7512613856 2.0358925886
H 8.9796196580 -2.0757105133 2.9574979705
H 7.5365751322 -0.1535042373 2.4573776624
C 0.7422712808 6.6095202243 -0.3630480710
N 2.0156611023 7.2980588394 -0.2398679344
C -0.4111945560 7.4873379726 0.0971766475
C -1.4355152922 7.8433322459 -0.7926675574
C -2.4891672801 8.6598339062 -0.3970517825
C -2.5364767652 9.1482121842 0.9148817877
O -3.5892906520 9.9407286571 1.2433941452
C -1.5231016230 8.8030562079 1.8189138850
C -0.4780182610 7.9789604761 1.4079771956
H 0.6077574054 6.3917981054 -1.4286475203
H 2.2843137446 7.4957401053 0.7195885803
H 2.7810041826 6.8389908808 -0.7253833552
H -1.3988907130 7.4931960487 -1.8218217984
H -3.2732918729 8.9449183040 -1.0907586027
H -3.4879241361 10.2724836354 2.1499790393
H -1.5486210505 9.1830552117 2.8378506040
H 0.2994073569 7.7368086802 2.1302774153
N 0.1619103476 -1.8330811135 0.3630492152
C 0.2083973872 -2.2453805962 1.5990641217
S 0.0472089052 -3.9047208665 2.1497767723
C 0.4495777333 -4.8638820788 0.5987974144
C 0.0545681180 -4.0741330621 -0.6136641143
C -0.0573980924 -2.7390870014 -0.6887058690
H 1.5303521489 -5.0520574688 0.6068869559
H -0.3148391585 -2.2537305590 -1.6206022339
H -0.1368263854 -4.6578283131 -1.5108439822
N 0.2582367930 0.0408058058 2.1820784305
C 0.3356317723 -1.1734661341 2.6316388960
S 0.5920941014 -1.7143095162 4.2845537715
C 0.4912751193 -0.1307424622 5.2652043455
C -0.2754579685 0.9246690053 4.4810236103
C 0.3103956262 1.1908720346 3.0951905167
H 1.5270332329 0.1920787743 5.4003512642
H -1.3275298359 0.6303501667 4.3805832522
H -0.2535255129 1.8575468932 5.0554952940
H 1.3583661219 1.5130552368 3.1763895439
H -0.2322675316 2.0018496965 2.6049350951
C -0.1162906370 -0.4756343897 6.6755722602
N -1.4971130033 -0.9221394665 6.6673761753
C 0.0995467086 0.7216749051 7.6013143659
C -0.9713367671 1.4300934605 8.1638991295
C -0.7566334944 2.5177460046 9.0047825303
C 0.5483668686 2.9173377999 9.3148475012
O 0.6947596856 3.9861667589 10.1425434737
C 1.6312467673 2.2112479466 8.7756701602
C 1.3999556305 1.1281634789 7.9308934601
H 0.4730035973 -1.3149172204 7.0699923032
H -2.1316466963 -0.2570691571 6.2346345111
H -1.6074528228 -1.8229311535 6.2117028069
H -1.9895622570 1.1035586334 7.9826046947
H -1.5880263058 3.0547862996 9.4496202449
H 1.6341533242 4.1227299614 10.3443604999
H 2.6501204099 2.4962219341 9.0294565686
H 2.2583936087 0.5774838703 7.5501907923
C -0.2900777944 -6.2541413511 0.6864239390
N -0.1558460389 -6.9418210247 1.9591118667
C 0.1759837844 -7.1250889627 -0.4699683322
C -0.7123092483 -7.4843540158 -1.4946139771
C -0.3116850573 -8.2943855520 -2.5513440383
C 1.0038209741 -8.7729694768 -2.6014993194
O 1.3363159344 -9.5603203573 -3.6566522779
C 1.9064250339 -8.4241360777 -1.5880026273
C 1.4903828946 -7.6065232168 -0.5397741797
H -1.3582682200 -6.0477490260 0.5552880476
H 0.8063192436 -7.1221313640 2.2300897412
H -0.6528578193 -6.4944776259 2.7239116667
H -1.7441760985 -7.1425325116 -1.4554792538
H -1.0040656681 -8.5822186062 -3.3356370842
H 2.2460990662 -9.8843323876 -3.5590619290
H 2.9279836164 -8.7968985682 -1.6156127762
H 2.2113873657 -7.3619943459 0.2381372310
N -1.7890310087 0.1044711557 -0.0385720262
C -2.1894847815 0.1443741839 -1.2796927353
S -3.8381906726 -0.0596497540 -1.8483831968
C -4.8174526293 0.3348195625 -0.3091514072
C -4.0382079167 -0.0648565913 0.9086058128
C -2.7022087813 -0.1478302859 0.9993314899
H -5.0067181205 1.4155474416 -0.3147706874
H -2.2249750586 -0.4061967276 1.9349138179
H -4.6293508593 -0.2809689959 1.7951691242
N 0.1007936332 0.2482459821 -1.8403225669
C -1.1114485030 0.3129135573 -2.2996842081
S -1.6448510633 0.5980827203 -3.9491917855
C -0.0494733173 0.5798306207 -4.9138410056
C 1.0169723322 -0.1905831998 -4.1483224884
C 1.2561624816 0.3547101191 -2.7411900995
H 0.2472527512 1.6286193808 -5.0005357859
H 0.7458720070 -1.2518879955 -4.0870674793
H 1.9538181826 -0.1253128795 -4.7128714643
H 1.5584522513 1.4105784493 -2.7829655149
H 2.0739792109 -0.1858028700 -2.2600735005
C -0.3607026254 0.0258228525 -6.3528592462
N -0.7725969569 -1.3649078896 -6.4099818058
C 0.8443089095 0.3119319288 -7.2487481359
C 1.5976690808 -0.7142681015 -7.8357377313
C 2.6968567982 -0.4337139772 -8.6416386106
C 3.0631032548 0.8940352029 -8.8905704934
O 4.1482624947 1.1049753035 -9.6821431044
C 2.3105655912 1.9331628407 -8.3283522074
C 1.2164680710 1.6360472048 -7.5192706088
H -1.2089538639 0.6111604012 -6.7337222040
H -0.0947747916 -2.0007580419 -5.9994381117
H -1.6730961507 -1.5159061137 -5.9654948741
H 1.2999278755 -1.7485636949 -7.7012167477
H 3.2700379779 -1.2302576119 -9.1047887847
H 4.2620030906 2.0552844266 -9.8430047593
H 2.5691417669 2.9693609062 -8.5359432868
H 0.6303024668 2.4612134162 -7.1185159256
C -6.2045746082 -0.4072058736 -0.4152856533
N -6.8801019654 -0.2685923199 -1.6941056514
C -7.0884606621 0.0514319792 0.7342180071
C -7.4593127192 -0.8430577964 1.7492415050
C -8.2813849549 -0.4489433695 2.7991549554
C -8.7605206347 0.8661869266 2.8518399221
O -9.5589250063 1.1933065518 3.9006201606
C -8.4005792120 1.7748103959 1.8477089298
C -7.5710167614 1.3652764193 0.8064026200
H -5.9972086775 -1.4756186652 -0.2869739133
H -7.0608599537 0.6946307495 -1.9612009963
H -6.4217932759 -0.7582346004 -2.4572149477
H -7.1170356266 -1.8746686770 1.7075988787
H -8.5779020097 -1.1461129825 3.5759354109
H -9.8838941245 2.1026776797 3.8025467826
H -8.7737123131 2.7961922834 1.8773058648
H -7.3176361145 2.0909832087 0.0357738545
