100
# extracted from Terachem optimization
Fe 0.2129445982 -0.1588249237 0.0489159926
O 0.3000931763 2.2751118979 0.1451674110
C 1.5408557246 2.7022312906 -0.5038478962
C 1.8659992484 4.1782720371 -0.2790400196
C 1.8373028524 4.5595587365 1.2059645593
C 0.6147299457 3.9776605522 1.8338213124
C -0.0790363231 2.9543795316 1.2716769448
H 2.7257311666 4.1768227546 1.7336344416
H 1.1188572970 4.7753461166 -0.8096207751
H 2.8400871699 4.3828004615 -0.7318808691
H -1.0296385096 2.5900180413 1.6397018871
H 0.2297383973 4.4198409158 2.7472328374
H 1.3527830220 2.5321501305 -1.5701716064
N 2.2950609386 0.4806665479 0.2203658659
C 2.6158659297 1.7086730600 -0.0723422798
O 3.8234685254 2.2166053054 -0.0852256625
C 5.0354993707 1.3877559973 0.1124872362
C 4.6495495983 0.0110438465 0.5476811262
C 3.3701537069 -0.3768751346 0.5907406961
H 5.6009552248 1.9248268611 0.8821036509
H 3.0759512137 -1.3676884499 0.9115908116
H 5.4527582820 -0.6666438132 0.8147093273
C 5.8826491098 1.4191793297 -1.1846734585
O 7.0328989512 0.6493288526 -0.9858802021
O 6.1320263150 2.7648787628 -1.4415260876
H 5.3325793549 0.9238979937 -1.9982893943
H 7.6853512616 1.1899318916 -0.5034867429
H 6.6199504151 2.8414583456 -2.2804152155
C 1.8669824758 6.0895497481 1.4317142490
O 1.8534835444 6.2461559570 2.8238132913
O 0.7257234493 6.6057405423 0.7908695678
H 2.7843007119 6.5120882045 0.9945389860
H 1.9465527987 7.1845641166 3.0584805016
H 0.8233702799 7.5612317161 0.6430191142
O 0.2160155881 -2.4400993836 0.0277186107
C -0.5480965140 -2.9359391041 1.1688962533
C -0.3867137400 -4.4365770908 1.3994107082
C 1.0860814968 -4.8585031805 1.4746751373
C 1.8399998681 -4.2075926523 0.3533209823
C 1.3809545599 -3.1291865194 -0.3019450958
H 1.5329403787 -4.5643995002 2.4360721881
H -0.8581113366 -4.9590483231 0.5620762962
H -0.9337980059 -4.7031147305 2.3082973459
H 1.8433792866 -2.6896404157 -1.1773581123
H 2.7635503625 -4.6637617031 0.0115757296
H -1.5871841494 -2.7068953545 0.9066078330
N 0.1775356627 -0.7983554834 2.1054770785
C -0.1890626589 -2.0291036165 2.3401163710
O -0.3345877569 -2.5844920450 3.5152340587
C -0.1725123759 -1.8272563963 4.7750716028
C 0.3081679223 -0.4423781954 4.4943118601
C 0.4702449364 0.0011210148 3.2405111442
H 0.5567839614 -2.4113715841 5.3483603375
H 0.8464842517 0.9922925279 3.0200216952
H 0.5125210220 0.1893708594 5.3511719300
C -1.5097636442 -1.8789540863 5.5683594496
O -1.3482443100 -1.1472261777 6.7487422659
O -1.7742491158 -3.2297245925 5.7637893298
H -2.2964680556 -1.3645890043 4.9983362875
H -0.9339912143 -1.7272580522 7.4141233478
H -2.6583918817 -3.3311098602 6.1581627803
C 1.2590976470 -6.3908399582 1.4010551684
O 2.6383446745 -6.6056703794 1.5422279936
O 0.7489586402 -6.7919400702 0.1522091412
H 0.7015714641 -6.8700583098 2.2206380612
H 2.8273491427 -7.5580460264 1.5785636740
H 0.5833346553 -7.7492488682 0.1480997372
O -1.9764010283 -0.2093584748 -0.1571490535
C -2.4447049497 -0.4614218484 -1.5197985413
C -3.8162524784 0.1418024082 -1.8344814287
C -3.9605660065 1.5789946691 -1.3141109394
C -3.5803711793 1.5796605152 0.1441278738
C -2.7029039775 0.7140093612 0.6361486171
H -3.3121770077 2.2671398129 -1.8746850333
H -4.5845595012 -0.4713633964 -1.3568655487
H -3.9669256916 0.0764713701 -2.9161836741
H -2.4478130065 0.5807021795 1.6805363282
H -4.0987020758 2.2479016208 0.8236267433
H -2.5107245996 -1.5541143079 -1.6015391778
N -0.0927215664 0.0646673625 -2.0115913017
C -1.3151984098 -0.0520717059 -2.4561078934
O -1.6834900301 0.0265989670 -3.7089067275
C -0.7521498767 0.4668892608 -4.7736622921
C 0.6583436329 0.3705190824 -4.2898265830
C 0.9285952863 0.1974700533 -2.9923234142
H -1.0495841612 1.4978574122 -5.0069941063
H 1.9392029457 0.1093054875 -2.6107570484
H 1.4431815705 0.4352491356 -5.0352616022
C -1.0321422224 -0.3784314249 -6.0407283282
O -0.1139832739 0.0038310531 -7.0282385485
O -2.3580912302 -0.1241463191 -6.3769083709
H -0.8366717462 -1.4383334773 -5.8312703257
H -0.4779809045 0.7791820786 -7.4931842240
H -2.6351050179 -0.7424346659 -7.0754212678
C -5.3956875571 2.1085275534 -1.4873757830
O -5.3633746979 3.4276928039 -1.0039331683
O -6.2284230905 1.2539600562 -0.7415240244
H -5.6776681896 2.0920611233 -2.5520775514
H -6.2139574877 3.8647172333 -1.1745272890
H -7.1580179266 1.3933683319 -0.9855827025
