112
# extracted from Terachem optimization
Fe -0.0357224464 0.1749452772 -0.0038991119
O 0.0363577374 2.3454591103 -0.1964247331
C 1.2747298856 2.9742256420 -0.5696527455
C 1.5244036283 4.2125661917 0.2577037208
C 0.5692167660 4.7977510594 0.9992587444
C -0.8476870588 4.2660313826 1.0217762137
C -1.0547336609 3.3154906621 -0.1485757164
H 2.5124699694 4.6614759241 0.2073864320
H 1.2046092649 3.2731194396 -1.6304240782
H -1.9595742209 2.7152483269 -0.0562898880
H -1.0779938076 3.8455783248 -1.1077066229
H -1.5701943331 5.0863518805 0.9470367949
H -1.0635269936 3.7747806798 1.9750299118
N 2.0268628820 0.6862672557 -0.3519028026
C 2.3877117901 1.9150600761 -0.4986671984
S 3.9926101547 2.5837151034 -0.7446059126
C 5.0350280493 1.0623348374 -0.5891681604
C 4.2867690554 -0.1653497870 -1.1247471274
C 3.0052943250 -0.4162123096 -0.3350736595
H 5.2682125950 0.9096547131 0.4696873948
H 4.0640459978 -0.0345958632 -2.1902944940
H 4.9421682061 -1.0335673730 -1.0164831652
H 3.2395601197 -0.6387725140 0.7141937549
H 2.4925200915 -1.2978489406 -0.7296195765
C 6.3618271517 1.3330997403 -1.3045669363
O 6.5641395287 2.3067829294 -1.9912695837
C 7.4588146881 0.2659754167 -1.0361035767
O 7.1966870159 -0.6982057563 -0.3240736424
N 8.6206570075 0.5396023579 -1.6408499870
H 8.7304566776 1.3844595623 -2.1885445401
H 9.4134868752 -0.0778813759 -1.5144783853
C 0.9825216668 6.0297565397 1.7544797940
O 1.9958866033 6.6461900469 1.5020591812
C 0.1000427451 6.5003104527 2.9586206132
O -0.7824044434 5.7673735564 3.3949368288
N 0.4458260960 7.7046937219 3.4176867603
H 1.2312074182 8.1980259848 3.0092307075
H -0.0337533253 8.1018439172 4.2166432117
O -0.0290605243 -2.1724951541 0.2970021776
C -0.1001480915 -2.6468164960 1.6434134391
C 0.8174995303 -3.8214725882 1.8874098625
C 1.4470031574 -4.4806207952 0.9012029941
C 1.2388463112 -4.0988380812 -0.5458710277
C -0.0273649852 -3.2591930828 -0.6692671656
H 0.9310284689 -4.1638374049 2.9120358564
H -1.1352244855 -2.9753371444 1.8481184101
H -0.1086023601 -2.7840874893 -1.6469959122
H -0.9232570332 -3.8698972225 -0.4986521918
H 1.1330077475 -4.9899390622 -1.1734717925
H 2.1127126696 -3.5692247170 -0.9387804013
N 0.2413369673 -0.2730600825 2.0766903465
C 0.1650309500 -1.4576126294 2.5832898080
S 0.2400868109 -1.9444030365 4.2655877975
C 0.4172575000 -0.3326591370 5.1527910043
C -0.1459430843 0.8278173886 4.3234488868
C 0.5059331086 0.8934732600 2.9432829137
H 1.4815696577 -0.1592722487 5.3384032252
H -1.2344461675 0.7322452422 4.2277332960
H 0.0678334826 1.7542136785 4.8638407553
H 1.5943231064 0.9977786100 3.0458753076
H 0.1555705755 1.7810486614 2.4121265633
C -0.2671244184 -0.4776997672 6.5180288826
O -1.0026073220 -1.3914171865 6.8083744157
C 0.0902859320 0.6536066375 7.5193600571
O 0.8334402819 1.5599198801 7.1572063919
N -0.4803832099 0.4994946315 8.7206565437
H -1.0536792695 -0.3111177292 8.9195741146
H -0.2875106720 1.1652041937 9.4592147447
C 2.3109371077 -5.6328338661 1.3307523467
O 2.2693088341 -6.1044392733 2.4471644532
C 3.3477126694 -6.2170643596 0.3117444836
O 3.5674096391 -5.6309142951 -0.7436925586
N 3.9238404502 -7.3400373292 0.7439282365
H 3.6963283801 -7.7067638737 1.6609023827
H 4.6332476634 -7.7965907957 0.1830774495
O -2.2977397303 0.1134167334 0.0468254924
C -2.8687854302 -0.6888366498 -0.9982945585
C -4.3388624001 -0.4254460930 -1.1940759597
C -5.0617297063 0.3730851570 -0.3921765276
C -4.4342052688 1.0236029602 0.8189032766
C -3.1772731583 0.2528530549 1.2001538505
H -4.8334115499 -0.9498586060 -2.0071520362
H -2.7363545056 -1.7514793289 -0.7288414651
H -2.5835479166 0.7778450633 1.9493241494
H -3.4204190337 -0.7484603702 1.5767606181
H -5.1252497195 1.0205914251 1.6678787326
H -4.2090637040 2.0776275261 0.6272768823
N -0.7578437517 -0.1439616424 -2.0457915965
C -1.9940753542 -0.4565978680 -2.2472560634
S -2.8312512025 -0.7514036133 -3.7558650176
C -1.4846900553 -0.5674376215 -5.0085154186
C -0.1068192597 -0.8371226949 -4.3908598630
C 0.1514721796 0.0694585128 -3.1885218149
H -1.5136519868 0.4584625690 -5.3887291208
H -0.0215030791 -1.8907973065 -4.0987266629
H 0.6444206944 -0.6354093552 -5.1594186265
H 0.0805327603 1.1231086595 -3.4914379599
H 1.1656624732 -0.0862159840 -2.8166829885
C -1.8110799900 -1.4993141265 -6.1825956892
O -2.6523490203 -2.3661787395 -6.1404409394
C -0.9756914746 -1.2161864121 -7.4596190068
O -0.1099345201 -0.3472646913 -7.4302496533
N -1.3133505719 -1.9917473758 -8.4970816156
H -2.0634868580 -2.6668925812 -8.4151890104
H -0.8452898792 -1.8732941061 -9.3875282705
C -6.5136792980 0.5278726598 -0.7440265801
O -7.0924818418 -0.2248030599 -1.4969680370
C -7.2969215724 1.7521133603 -0.1564301340
O -6.6934631127 2.6261535279 0.4573671437
N -8.6026970147 1.7118514312 -0.4246631783
H -8.9842853074 0.9567419273 -0.9827784421
H -9.2074820597 2.4658346305 -0.1209153472
