139
# extracted from Terachem optimization
Fe -0.2071063101 -0.3666592444 -0.2826383025
N 0.0848840327 1.5949507836 -0.5605078569
C 1.2977125246 2.0043526950 -0.4548011576
O 1.5693052655 3.2751632639 -0.6898155178
C 0.2718677588 3.9567138502 -0.9114870351
C -0.7256119690 2.7540709224 -0.9871199827
H -1.5793404954 2.8862215354 -0.3193927446
H -1.0984255789 2.5708397444 -1.9992960367
H 0.3704426814 4.4815125016 -1.8622835022
O 1.8800883030 -0.2445109696 -0.1136188743
C 2.4236656121 1.0871969687 -0.0641092269
O 2.8395360194 1.4460980133 1.2116311381
C 3.9368988837 0.6267018507 1.7260944943
C 3.4723850758 -0.8436494257 1.6519045296
C 2.9070409958 -1.2083350569 0.2872002251
H 3.9700329610 0.9048204889 2.7825028498
H 3.2496772787 1.1348556106 -0.7863748571
H 2.4141671498 -2.1804651986 0.2924157152
H 3.6721616855 -1.1997615665 -0.4987885956
H 4.2953402905 -1.5083686565 1.9179922324
H 2.6835460029 -0.9858377718 2.3977699340
C 5.2811171818 1.0336701263 1.0978675786
C 5.3769697201 2.1566971464 0.3806842378
C 6.4908103260 0.1450989143 1.4362874811
N 6.3503736326 -0.3863000089 2.7558736809
C 6.7113764989 -0.9841367725 0.4208160252
Cl 8.0780824378 1.1852720072 1.3217351395
H 6.3293419051 2.5099915545 0.0057404011
H 4.5115406830 2.7816035992 0.1922984214
H 7.1021482149 -1.0404707909 2.9654322805
H 6.3888363916 0.3500404829 3.4587227467
H 6.8435795878 -0.5733976507 -0.5816653958
H 7.6096518704 -1.5522337068 0.6792649516
H 5.8624213129 -1.6756109575 0.4171120499
C 0.0108046575 4.9565507520 0.2024326431
C 0.5841512313 4.8230099733 1.3995277015
C -0.8811267115 6.1266788526 -0.2390394633
N -0.1740762073 6.8593045769 -1.2331857694
C -2.2457207601 5.6894012527 -0.7870163529
Cl -1.2984632918 7.1974203992 1.2696402519
H 0.4105137319 5.5407374357 2.1914951200
H 1.2790159869 4.0146457481 1.6051690473
H -0.7363151595 7.6065310805 -1.6350691259
H 0.6898088894 7.2593969370 -0.8744832110
H -2.8090492119 5.1286182137 -0.0379907854
H -2.8340894064 6.5699792705 -1.0589261142
H -2.1180126920 5.0795350211 -1.6890520313
N -0.3156412469 -2.3092804820 0.2278589677
C -0.4784797587 -2.5811747796 1.4730295136
O -0.5403697292 -3.8429931729 1.8547275177
C -0.2817263191 -4.6672771074 0.6511312125
C -0.2713389984 -3.5975749369 -0.4909463844
H 0.6291569520 -3.6563496578 -1.1066019111
H -1.1430753938 -3.6778122027 -1.1486161595
H -1.1261716561 -5.3529837306 0.5759679940
O -0.5137364906 -0.2659726659 1.7567638098
C -0.6400446331 -1.4916752194 2.4958169655
O 0.3370151078 -1.6147534248 3.4702077282
C 0.2445117419 -0.5948050794 4.5152086856
C 0.2716184031 0.7811666116 3.8163356740
C -0.7016563084 0.8754128102 2.6479607254
H 1.1919512639 -0.7095572900 5.0476924039
H -1.6472901674 -1.5174046258 2.9372853113
H -0.5108937174 1.7578426727 2.0405977847
H -1.7509822186 0.8733264627 2.9688222676
H 0.0819930822 1.5698780218 4.5457649234
H 1.2810195617 0.9410033317 3.4239497368
C -0.8869164676 -0.9206406105 5.5068751671
C -1.4761425085 -2.1195085776 5.4886818758
C -1.2080549295 0.1557628989 6.5588660195
N -0.0167954074 0.8652085901 6.9064995770
C -2.3043085050 1.1282225500 6.1054595120
Cl -1.9391809201 -0.6783064647 8.1035989285
H -2.2109717166 -2.3996355131 6.2330647580
H -1.2027938456 -2.8737965558 4.7593064795
H -0.2209741740 1.6284550571 7.5488926337
H 0.6563205596 0.2556993901 7.3680070631
H -3.2214675727 0.5849277942 5.8706986544
H -2.5272888340 1.8449761446 6.9013454264
H -1.9839613320 1.6921312394 5.2231524222
C 1.0060459408 -5.4546668310 0.8260427951
C 1.9805071018 -5.0138771531 1.6234679648
C 0.9949957709 -6.7952893601 0.0771427484
N -0.0105485967 -7.6093110800 0.6669707493
C 0.7362323395 -6.6527846585 -1.4281455965
Cl 2.7129536609 -7.5910099934 0.1897515194
H 2.8962999424 -5.5751033591 1.7611438247
H 1.8658767095 -4.1000956052 2.1991014078
H -0.1305443600 -8.4920086323 0.1750848426
H 0.1755776472 -7.8047758238 1.6479259403
H 1.5038873097 -6.0360524112 -1.9009713068
H 0.7566679689 -7.6375231174 -1.9026859688
H -0.2535966005 -6.2161281647 -1.6066928031
N -2.1266465394 -0.2793237336 -0.7704359144
C -2.4328478580 -0.3725149630 -2.0134963670
O -3.7024568839 -0.3210919313 -2.3703239140
C -4.4897405174 -0.0970468665 -1.1343941819
C -3.3894647036 -0.1416551426 -0.0208829238
H -3.3684008474 0.7719553597 0.5784751780
H -3.5137888295 -0.9964318099 0.6516193227
H -5.1781191581 -0.9405976293 -1.0697404669
O -0.1603267941 -0.7759111863 -2.3494403090
C -1.3764103129 -0.5205373699 -3.0712859646
O -1.3302104399 0.6622459159 -3.8006165173
C -0.3214118024 0.6630471573 -4.8585088421
C 1.0300888999 0.3295849166 -4.1910678233
C 0.9533935843 -0.8941409586 -3.2878332427
H -0.2864275688 1.7137563271 -5.1568671681
H -1.5671645863 -1.3860618940 -3.7190018634
H 1.8397896732 -1.0013350103 -2.6649839659
H 0.7961794391 -1.8202866741 -3.8536000554
H 1.7990483184 0.2024440905 -4.9545131089
H 1.3208612263 1.1955061510 -3.5856897867
C -0.7829344774 -0.1500931850 -6.0788968206
C -2.0452395693 -0.5773563428 -6.1714631614
C 0.2499136349 -0.3365705907 -7.2045201107
N 1.1245447176 0.7938821792 -7.2571972634
C 1.0551488088 -1.6356285417 -7.0684060951
Cl -0.6620913321 -0.5264120092 -8.8597973235
H -2.4111293702 -1.0709313008 -7.0632922753
H -2.7646675182 -0.4020766957 -5.3795527367
H 1.8636439233 0.6498723704 -7.9428451865
H 0.6236328814 1.6377036367 -7.5306957345
H 0.3865307422 -2.4980550636 -7.0560184570
H 1.7396106161 -1.7448355497 -7.9147056913
H 1.6510113106 -1.6306164100 -6.1491619176
C -5.2794800726 1.1962349947 -1.2401156022
C -4.8436339110 2.2118986383 -1.9863139658
C -6.6109105816 1.1467507338 -0.4768223824
N -7.4214487125 0.1443423606 -1.0792990865
C -6.4375420432 0.8515534581 1.0187285592
Cl -7.4326090680 2.8523901495 -0.5344373528
H -5.4096653146 3.1305562172 -2.0769110641
H -3.9280701755 2.1342126121 -2.5648407256
H -8.2943139680 0.0025665844 -0.5756643015
H -7.6381941171 0.3569839945 -2.0504882004
H -5.8230356036 1.6163861366 1.4989192511
H -7.4131739327 0.8437520018 1.5121769243
H -5.9816055748 -0.1353485373 1.1624566092
