139
# extracted from Terachem optimization
Fe -0.0584404456 -0.1368142546 -0.0980862328
N 0.2236229417 1.9834460807 -0.2907566743
C 1.4596673200 2.3959017618 -0.2243968845
N 1.6582122929 3.7081508269 -0.4009883183
C 0.3866132219 4.3633959816 -0.7764606579
C -0.6089534157 3.1843768882 -0.5422084027
H -1.2417518537 3.3579767200 0.3364081850
H -1.2630256726 3.0176645506 -1.4011756334
H 0.4230532043 4.6549113677 -1.8334386630
H 2.5716474440 4.1288587525 -0.5071659582
N 2.2147738204 0.1677118849 0.1082940043
C 2.5392178830 1.4211425447 0.0478608554
O 3.7308003382 1.9584912505 0.2410374540
C 4.9367598259 1.1136486211 0.4443776289
C 4.5168929482 -0.3072292442 0.6478615998
C 3.2524842705 -0.7163647921 0.4656865957
H 5.4257232819 1.5347753128 1.3325307020
H 2.9463732584 -1.7448745889 0.6148992322
H 5.2763747257 -1.0136515009 0.9644560236
C 5.9060714264 1.4045220458 -0.7482199637
N 5.6075074295 0.7374574894 -1.9820417880
C 7.4163884755 1.2034461967 -0.3219957555
N 7.6687005301 1.9642904674 0.8912080949
C 7.8533701981 -0.2522452719 -0.1535947674
H 5.7992225089 2.4819594243 -0.9229925580
H 5.3910399141 -0.2498048373 -1.9235309990
H 5.0057823832 1.2268514836 -2.6305930186
H 7.9657138967 1.6195885905 -1.1786160110
H 8.3669936236 1.5484198328 1.5009516428
H 7.9085710891 2.9382935439 0.7266078980
H 7.5707789164 -0.8541178723 -1.0219498642
H 8.9437167141 -0.3018852701 -0.0696136006
H 7.4369402154 -0.7093005214 0.7517872895
C 0.1590191256 5.6821947300 0.0318891787
N -0.1024334191 5.5530930857 1.4477589651
C -0.9033661700 6.6019964060 -0.6425955127
N -0.5043272151 6.8259064996 -2.0353742784
C -2.3335979818 6.0574923375 -0.6029895648
H 1.1103875662 6.2276700441 -0.0539198353
H -0.9664923263 5.0737448648 1.6770579791
H 0.6675789098 5.1547768083 1.9748355646
H -0.8840729637 7.5262336194 -0.0459743290
H -1.2722178856 7.2120839639 -2.5809186910
H 0.2624475987 7.4942566368 -2.0966767517
H -2.6517372158 5.8299204143 0.4194363000
H -3.0308629283 6.8094718866 -0.9875651913
H -2.4433690599 5.1609537401 -1.2256667679
N 0.2225270203 -2.2097918391 0.2879939028
C -0.0033035387 -2.5495490372 1.5321031673
N 0.0672785367 -3.8508186208 1.8117058269
C 0.3701086567 -4.6283081094 0.5895811823
C 0.4696762092 -3.4684409672 -0.4568756754
H 1.4584117535 -3.4206234269 -0.9259806018
H -0.2690144212 -3.5768027482 -1.2566952680
H -0.4626185125 -5.3037309172 0.3678790144
H -0.1637995772 -4.2490510550 2.7121595851
N -0.3468641266 -0.2790320741 2.1175354651
C -0.3017562004 -1.5034980388 2.5370202714
O -0.4139998948 -1.9323958232 3.7778557972
C -0.9851882180 -1.0323715554 4.8205720852
C -0.7985689030 0.3921148996 4.3828683279
C -0.5216420095 0.7051195585 3.1100708679
H -0.4074074643 -1.2648195265 5.7191267643
H -0.3863815757 1.7239842600 2.7663256829
H -0.8904694643 1.1697355040 5.1328496824
C -2.4347069922 -1.5029118857 5.0710494578
N -3.3087718408 -1.0778156496 3.9765475459
C -2.9286597812 -1.1874398462 6.5222466472
N -2.0068043956 -1.8304544378 7.4586174935
C -3.0519942882 0.2998711706 6.8655574107
H -2.3724430081 -2.5978325405 5.0139503616
H -3.5795343473 -0.1025093183 4.0948859130
H -4.1727584871 -1.6174190387 3.9957443652
H -3.9430969785 -1.6214712335 6.5664383354
H -2.0919197083 -1.4437137518 8.3960372946
H -2.1746368391 -2.8320653644 7.5315329505
H -3.6072713821 0.8564626108 6.1028386746
H -3.5981526823 0.4221693667 7.8064865961
H -2.0684277882 0.7642127121 6.9977543574
C 1.6319481413 -5.5219265372 0.7928010489
N 2.9119457876 -4.8450800130 0.8810716045
C 1.6945616749 -6.6885100293 -0.2356031372
N 0.4449294435 -7.4500179691 -0.1341887838
C 1.8992031615 -6.2494258324 -1.6887278155
H 1.4807573921 -6.0074728316 1.7680548435
H 3.1870854565 -4.3639272427 0.0309592619
H 2.9864976928 -4.2197892579 1.6772491741
H 2.5780360877 -7.2729262917 0.0616189199
H 0.3440646150 -8.0856800380 -0.9231506205
H 0.4401228564 -8.0312625358 0.7031662706
H 2.7999656646 -5.6376891378 -1.8085405236
H 2.0325513084 -7.1289660683 -2.3277306078
H 1.0319720313 -5.6969595952 -2.0710979726
N -2.1517055584 0.0347170400 -0.4420792634
C -2.5081042256 -0.1559246056 -1.6823330898
N -3.8205422554 -0.1115648357 -1.9382025562
C -4.5748283193 -0.0037176654 -0.6652956947
C -3.3991898153 0.2602164582 0.3288344206
H -3.3994895985 1.2967315566 0.6896603079
H -3.4254587688 -0.3956093588 1.2024172580
H -5.0658816954 -0.9603865499 -0.4533739543
H -4.2277095309 -0.3956905504 -2.8194084067
N -0.2363638268 -0.4650407394 -2.3307366057
C -1.4708331958 -0.3905779614 -2.7176079493
O -1.9358357270 -0.4783932917 -3.9481975190
C -1.0355986926 -0.7409837100 -5.1134522822
C 0.3842832551 -0.7865441314 -4.6394444736
C 0.7203448868 -0.6622387660 -3.3485547516
H -1.2197712192 0.0955076086 -5.7995301085
H 1.7477527765 -0.6857090750 -3.0047348881
H 1.1550734871 -0.9106800176 -5.3922330998
C -1.5817833946 -2.0185558677 -5.8228851975
N -1.2031479156 -3.2890696836 -5.2529538461
C -1.3045494614 -1.9848532963 -7.3668584944
N -1.8058821390 -0.7218290164 -7.9020876520
C 0.1582941858 -2.1858596459 -7.7695160769
H -2.6715988159 -1.9340755930 -5.7211796150
H -0.2052541985 -3.4044187777 -5.1107796936
H -1.7071346853 -3.5346492093 -4.4084219103
H -1.8717689107 -2.8480463415 -7.7454992759
H -1.3623191439 -0.4657263197 -8.7806889525
H -2.8127933750 -0.7299207099 -8.0499557483
H 0.5855585652 -3.0736592102 -7.2942241180
H 0.2262643621 -2.3418727080 -8.8511865344
H 0.7768896542 -1.3127508601 -7.5295379456
C -5.7027608242 1.0694179864 -0.7620884656
N -5.2876581426 2.4554743934 -0.8642976645
C -6.7750157284 0.9017653975 0.3503539467
N -7.2793865921 -0.4772554845 0.3003823502
C -6.2732263683 1.2002467946 1.7664523417
H -6.2259591606 0.8416188982 -1.7026959653
H -4.7717449597 2.7858595078 -0.0545214579
H -4.7475010511 2.6447456437 -1.7034349849
H -7.5455245143 1.6495962186 0.1103893421
H -7.8588994077 -0.6720009311 1.1152515970
H -7.8860699402 -0.6056494824 -0.5092087336
H -5.8371521498 2.2017741882 1.8403997264
H -7.1108833477 1.1693902872 2.4719466763
H -5.5358495060 0.4574000448 2.0952866659
