151
# extracted from Terachem optimization
Fe -0.0311617748 -0.1043708692 -0.1780512169
N 0.0887561660 1.8362617638 -0.5145325092
C 1.3018071839 2.3128596236 -0.6470579049
C 1.5858365679 3.7020986210 -0.9149127041
C 0.5958906152 4.5269048632 -1.3458351200
C -0.7771390929 3.9419571667 -1.5543733388
C -1.0316219325 2.7916523437 -0.5840197606
H -0.8397613083 3.6008247540 -2.6008698523
H -1.5472716105 4.7040424192 -1.4189269943
H 2.6054461239 4.0661005861 -0.9183313252
H -1.1807867445 3.1976245758 0.4287296539
H -1.9290055547 2.2344773082 -0.8519198352
N 1.9326023559 0.0676826045 -0.3295161789
C 2.3776699130 1.2872415818 -0.5031981455
C 3.7793963983 1.6243758723 -0.5450830798
C 4.7091441577 0.6527570903 -0.7400428275
C 4.2273661509 -0.7719744970 -0.8368382634
C 2.9311579381 -0.9779546514 -0.0524497606
H 4.1121690317 -1.0100516924 -1.9024599008
H 4.9849688475 -1.4690454431 -0.4639125149
H 4.0772038416 2.6640052503 -0.5152438748
H 3.1306330029 -0.9546915467 1.0306528479
H 2.4819868854 -1.9454249542 -0.2808565515
C 6.1938264762 0.9723598399 -0.8967570392
N 6.6579625396 2.1881996509 -0.2687723928
C 6.5995647863 1.0203413714 -2.4075515312
O 5.9588698239 2.1759658214 -2.9234366969
C 8.1127452407 1.0815687392 -2.5918315837
O 6.0614606599 -0.1550286155 -2.9876587707
H 6.7456207012 0.1292772161 -0.4622551662
H 6.3362279062 3.0197580169 -0.7545324599
H 6.4496573603 2.2432972483 0.7226656061
H 6.4874391617 2.5376323397 -3.6533640583
H 8.5841520993 0.1768589233 -2.1983399204
H 8.3520804108 1.1492666198 -3.6623879651
H 8.5371547934 1.9472518650 -2.0802809626
H 6.5054854869 -0.3107678873 -3.8373875924
C 0.8642141377 5.9735980522 -1.7113507600
N 2.2691460685 6.1923849835 -2.0332636999
C 0.4047383034 6.9415279218 -0.5421026763
O 1.3955916411 6.9724796709 0.4645951809
C 0.2347847543 8.3720915369 -1.0365345642
O -0.8014364288 6.4098597014 -0.0219587446
H 0.2245848896 6.2050495710 -2.5729135151
H 2.7117453205 6.7458166880 -1.3027603799
H 2.3835015440 6.6767444354 -2.9179740517
H 1.3654230669 6.1193209694 0.9304363888
H -0.5705134997 8.4261763708 -1.7739560931
H -0.0069997752 9.0214051425 -0.1886891440
H 1.1571183087 8.7491958076 -1.4847108538
H -1.1864295925 7.0826853226 0.5663908116
N -0.0989614970 -2.0263770164 0.3812160295
C 0.0314700316 -2.2722811910 1.6590735637
C -0.0454055084 -3.5939132994 2.2368965307
C -0.5766486585 -4.6179832214 1.5226180758
C -1.0743676134 -4.3239544977 0.1314179166
C -0.2775694778 -3.1900165923 -0.5089046494
H -2.1432577944 -4.0635632567 0.2033988129
H -1.0055461228 -5.2111210656 -0.5016900042
H 0.1754858375 -3.7471477294 3.2851296532
H 0.7275118580 -3.5550469089 -0.7729227444
H -0.7519146769 -2.8532552533 -1.4292799485
N 0.2281026676 0.0649638579 1.7933192146
C 0.2508535611 -1.0505522078 2.4845155613
C 0.4656298161 -1.1087169228 3.9092721010
C 0.3144064429 0.0085527253 4.6687448102
C 0.0184192820 1.2984778651 3.9505256196
C 0.5933714365 1.2875546538 2.5357805990
H -1.0699819924 1.4408668115 3.9466230118
H 0.4224547043 2.1561291385 4.4978093329
H 0.6449663321 -2.0650288013 4.3824433880
H 1.6935373134 1.3286632267 2.5749011215
H 0.2512489121 2.1613507119 1.9832124143
C 0.4169512476 -0.0254671920 6.1917982952
N 1.1305330262 -1.1461503258 6.7594765405
C -0.9966018266 0.0382283668 6.8622338134
O -1.6150866169 -1.1950494815 6.5325380387
C -0.9029107344 0.2384024835 8.3717474323
O -1.6692024334 1.1216345296 6.2457874182
H 0.9315758592 0.8974762763 6.4895241384
H 0.6136273934 -2.0158661150 6.6694241416
H 2.0770916668 -1.2491557816 6.4088226801
H -2.2231370114 -1.4487061150 7.2458265444
H -0.4332916923 1.1982299626 8.6038565958
H -1.9120223429 0.2429582013 8.8073818353
H -0.3199965473 -0.5571617876 8.8388291232
H -2.4349298502 1.3599645545 6.7939757773
C -0.7814912968 -5.9930307648 2.1287053373
N -0.7883133227 -5.9334076411 3.5863824405
C 0.3085914687 -7.0236072012 1.6160753909
O 1.5214026260 -6.8155332883 2.3132160143
C -0.1139335582 -8.4619862481 1.8910708623
O 0.4924967343 -6.7826367953 0.2333890004
H -1.7485806145 -6.3567436930 1.7586673071
H 0.1012883112 -6.2777191199 3.9438565755
H -1.5271351641 -6.5090220969 3.9785509033
H 1.9369857828 -6.0201153469 1.9388432550
H -1.0321957127 -8.7021138929 1.3481670479
H 0.6831157333 -9.1393122587 1.5666354768
H -0.2716880202 -8.6350459302 2.9581547095
H 1.0044141580 -7.5268094815 -0.1287027024
N -2.0125868361 -0.2568066479 -0.2329268320
C -2.5343704232 -0.4354956071 -1.4189975063
C -3.9498362412 -0.6112854972 -1.6509220082
C -4.7777158260 -0.9026517107 -0.6153273321
C -4.1759976343 -1.0419100534 0.7595369450
C -2.9365698240 -0.1633445812 0.9123846114
H -3.9300918878 -2.1055055039 0.9120671943
H -4.9036344221 -0.7711018537 1.5272842276
H -4.3358057110 -0.6645588038 -2.6606896080
H -3.2406338370 0.8915665295 0.9933967995
H -2.3823670052 -0.4136482246 1.8162013505
N -0.2846801898 -0.3904244635 -2.1250770195
C -1.5325789422 -0.4587981521 -2.5261876896
C -1.9251054521 -0.5269738445 -3.9113698699
C -1.0159269208 -0.8553424390 -4.8668957183
C 0.4025595554 -1.0895532268 -4.4203388742
C 0.7371983128 -0.2607516245 -3.1816667893
H 0.5196555227 -2.1652713251 -4.2340694635
H 1.1133429612 -0.8532989915 -5.2179715414
H -2.9651603364 -0.3911666703 -4.1769381647
H 0.8022231566 0.8080935507 -3.4395240673
H 1.7026860004 -0.5562562761 -2.7731448736
C -1.4032831668 -0.9967378987 -6.3363725997
N -2.6212105219 -0.3339570785 -6.7422809498
C -1.5049298874 -2.4992112507 -6.7637413749
O -2.6212982724 -3.0055694655 -6.0497198494
C -1.6794577308 -2.6550944870 -8.2717408158
O -0.3034510117 -3.1085427484 -6.3276005835
H -0.5717774168 -0.5755166715 -6.9168278202
H -3.4486590950 -0.7982463990 -6.3800576470
H -2.6395964472 0.6576612200 -6.5283324815
H -3.0248294438 -3.7286604043 -6.5570457741
H -0.8077779070 -2.2619435784 -8.8020961450
H -1.7746602265 -3.7209560862 -8.5228697237
H -2.5683439802 -2.1292389013 -8.6242304722
H -0.1980535820 -3.9532752772 -6.7952129715
C -6.2483620624 -1.2051611943 -0.8276767749
N -6.5178502147 -1.5947063249 -2.2077741871
C -7.1613172432 0.0179930159 -0.4011923652
O -7.1488919330 0.9975697613 -1.4210682344
C -8.6123670841 -0.4090542131 -0.2196048476
O -6.6129933164 0.5503835077 0.7909223086
H -6.4976448633 -2.0288716771 -0.1463525137
H -6.9656377695 -0.8227946972 -2.6990375085
H -7.1405707701 -2.3954806270 -2.2520915640
H -6.2828683458 1.4387959017 -1.3874635030
H -8.6963270867 -1.1327720647 0.5957183182
H -9.2215082074 0.4700642099 0.0155903997
H -9.0150928472 -0.8496235314 -1.1345068469
H -7.2626205815 1.1749212760 1.1581010874
