112
# extracted from Terachem optimization
Fe 0.3582203759 0.0835271543 0.1974106098
O 0.6360265617 2.2273309710 0.7928437138
C 1.9928446419 2.5908820069 1.1101470464
N 2.0184040244 2.9572752684 2.5093843062
C 1.4290540615 4.2913365744 2.6661250491
C 0.1599024652 4.3280867281 1.8415781786
C -0.2061455643 3.3284608504 1.0342513971
H 1.1739033888 4.4307591409 3.7244767649
H 2.9546641820 2.9217983151 2.9056874035
H -1.1162999340 3.2695446530 0.4508635566
H -0.4836871168 5.1958176821 1.9239704914
H 2.2374920244 3.4269258926 0.4415748920
N 2.4198471623 0.2563029522 0.5000466938
C 2.9161395132 1.4420941423 0.7947484364
N 4.2220433929 1.7000206665 0.8879721122
C 5.2380828641 0.7799590681 0.3656974054
C 4.6738596409 -0.6148478385 0.4165758679
C 3.3454394589 -0.8078955112 0.4284287272
H 6.1390038340 0.8718362685 0.9777961105
H 4.5017839109 2.6610211502 1.0792846156
H 2.8983574098 -1.7956759647 0.4349836374
H 5.3646327053 -1.4486084196 0.3887506838
C 5.5484472685 1.1741060369 -1.1273746325
O 4.6287820841 1.4641625253 -1.8564715814
C 7.0016159616 1.1912013471 -1.6025344271
N 7.8062304458 2.0219914456 -0.8053271956
Cl 7.4818642402 -0.6244261497 -1.6430263401
H 7.0087685806 1.5170165743 -2.6415752717
H 8.1193311004 1.6148820175 0.0711951378
H 8.6055378453 2.4098276654 -1.2989633936
C 2.4679570183 5.3907777823 2.2750556787
O 3.4482191821 5.0759391032 1.6274859871
C 2.2820689899 6.8222836839 2.7711767585
N 0.9392355878 7.2596355952 2.8248452825
Cl 3.1550525568 6.7659672478 4.4323921334
H 2.8876636088 7.4807684687 2.1497291256
H 0.4400950536 6.9246796011 3.6458270725
H 0.8684482017 8.2741922367 2.8100446777
O 0.0485681234 -2.0358140793 -0.2262389583
C -0.1100408982 -2.8676421902 0.9427076071
N 1.0868318582 -3.6708535384 1.0646695761
C 1.0595050315 -4.7463320941 0.0682135860
C 0.6595581578 -4.1221750225 -1.2505482405
C 0.2656672528 -2.8518839786 -1.3601251588
H 2.0748758696 -5.1523470529 -0.0229359756
H 1.2106010225 -4.0402897293 2.0044530365
H 0.0336787899 -2.3437881551 -2.2867857562
H 0.7190580452 -4.7233010507 -2.1498308676
H -1.0164560515 -3.4579410491 0.7588158222
N -0.0945117118 -0.7073932222 2.0938577498
C -0.3214216582 -2.0033004479 2.1597371252
N -0.6686946494 -2.6477107015 3.2765886601
C -1.1228219412 -1.9428738822 4.4787801820
C -0.5355248535 -0.5577543421 4.4647632970
C -0.1139338031 -0.0050953680 3.3131244861
H -0.8015881825 -2.5071076301 5.3584309011
H -0.8560119389 -3.6472584312 3.2080802161
H 0.2803844440 1.0044156730 3.2632493250
H -0.5162039383 -0.0032710122 5.3951268136
C -2.6983337141 -1.8522914279 4.4358350682
O -3.2328066030 -1.5659827431 3.3909507253
C -3.4905851960 -2.1471328624 5.7095160428
N -3.1576332332 -3.3962543136 6.2592888932
Cl -3.1521364771 -0.6538235268 6.7967446225
H -4.5503014865 -2.0946046338 5.4640223536
H -2.3035935040 -3.4143978461 6.8091692619
H -3.9105248674 -3.8156422009 6.7980629484
C 0.1211914823 -5.9009738631 0.5422636446
O -0.6780176848 -5.6854609275 1.4336473951
C 0.2732067711 -7.2955495933 -0.0562608659
N 0.5867979602 -7.3176646540 -1.4328026347
Cl 1.5864352037 -8.0435318963 1.0630467180
H -0.6352727947 -7.8592344054 0.1517439039
H 1.5686590847 -7.1355456598 -1.6280994736
H 0.3425037712 -8.2049143356 -1.8658483607
O -1.7932286031 0.5556984222 -0.0949806183
C -2.1569521218 0.9234074011 -1.4373818962
N -2.6300365936 2.2900741678 -1.3946077097
C -3.9826453063 2.3159932861 -0.8268563218
C -3.9725093729 1.4288089779 0.3999278819
C -2.9207763135 0.6799191329 0.7403464604
H -4.2064034408 3.3467740775 -0.5236608641
H -2.6022409619 2.7420468495 -2.3053737841
H -2.8441802535 0.0644833266 1.6265409412
H -4.8479131405 1.4130762802 1.0381659696
H -2.9356302755 0.2101023520 -1.7391844559
N 0.2188184098 0.4675166980 -1.8598380599
C -0.9736553792 0.7482746483 -2.3567217396
N -1.2203619632 0.9208776816 -3.6564532383
C -0.2508001857 0.5715943446 -4.7035115773
C 1.1208955208 0.5489266173 -4.1025661964
C 1.2920146333 0.4663234699 -2.7726268270
H -0.3228352429 1.3082200004 -5.5086240699
H -2.1862541866 1.0659661223 -3.9551843400
H 2.2753009191 0.4334093919 -2.3196467584
H 1.9721709737 0.5608134296 -4.7741285011
C -0.6638734806 -0.8495515425 -5.2562401013
O -0.5480374495 -1.8220488101 -4.5513881927
C -1.3091378387 -0.8842440431 -6.6413089573
N -2.3625856781 0.0807893135 -6.6938254808
Cl 0.0667822043 -0.5971567331 -7.8205052053
H -1.6800398944 -1.8945087296 -6.8160504331
H -2.0773713798 0.9644359242 -7.1098069234
H -3.1726974426 -0.2599467263 -7.2061844428
C -5.0304132511 1.8983198104 -1.9056132978
O -4.6486371123 1.3348252151 -2.9141394198
C -6.4986397222 2.2701337447 -1.7240616275
N -6.9667470593 2.2104688974 -0.3932301915
Cl -6.5514002230 3.9829023223 -2.5001319696
H -7.0953435735 1.6395922868 -2.3818880728
H -6.7027638628 3.0190475962 0.1651249443
H -7.9786174057 2.1183375326 -0.3489320214
