103
# extracted from Terachem optimization
Fe 0.1631195502 0.0266771115 -0.0397507345
O 0.1162881576 2.2518089972 -0.1523691653
C 1.2260230386 2.8725676951 -0.8771880840
N 1.5470457336 4.1788468057 -0.4306545326
C 0.4052714008 5.1155741697 -0.4314110950
C -0.8643951191 4.4836231756 0.1657018315
C -1.0925371046 3.0559508461 -0.3294563493
H 0.7104341186 5.9874642187 0.1492157575
H 2.0848353514 4.2087233778 0.4296834441
H 0.9096162769 2.9250419211 -1.9291273234
H -1.8649092734 2.5394429832 0.2392374287
H -1.3587862856 3.0401940243 -1.3905741959
H -1.7479392491 5.0868965255 -0.0708352248
H -0.7595305341 4.4760566222 1.2571610326
N 2.1854282046 0.6644660187 -0.5136041815
C 2.3974825045 1.9059472187 -0.7784630820
O 3.5534719569 2.4989118542 -1.0313414234
C 4.7773446179 1.7163584626 -1.0592724805
C 4.4769023267 0.2559546822 -1.4011258312
C 3.3423864765 -0.2506024610 -0.5096630371
H 5.2399928266 1.8007993965 -0.0716708953
H 4.1865098183 0.1824467452 -2.4561096089
H 5.3802404340 -0.3414568868 -1.2560722385
H 3.6822629033 -0.3754418831 0.5259290127
H 2.9943304965 -1.2282102358 -0.8528119078
C 5.6767258283 2.3798809303 -2.1161485613
O 5.2495337049 3.0555635299 -3.0115123216
C 7.1722496663 2.0255254320 -1.9317400582
O 7.5119829459 1.2483406508 -1.0826871344
Cl 8.2552060843 2.8190462334 -3.0462950439
C 0.2655101512 5.5533749963 -1.8973072920
O -0.4626200251 5.0050021639 -2.6908978535
C 1.2128127071 6.7162266403 -2.3036870321
O 1.8314638524 7.3374922603 -1.4922395606
Cl 1.2628296225 7.0265211331 -4.0352404357
O 0.4473626973 -2.0727119089 0.6047265914
C 0.2913166209 -2.3893111025 2.0349918128
N 1.1510194408 -3.4206463153 2.4952519922
C 1.0931300661 -4.6692835134 1.7244751485
C 1.1858915954 -4.3853042143 0.2012625076
C 0.2231199865 -3.2699323118 -0.1976736363
H 1.9435145369 -5.2863116739 2.0206651072
H 2.1125668333 -3.1104834482 2.6065718010
H -0.7447359949 -2.7172293677 2.1737339367
H 0.3727281501 -2.9548204272 -1.2305224586
H -0.8225305542 -3.5792174470 -0.0719194788
H 0.9735010446 -5.2842780185 -0.3873283367
H 2.2156878494 -4.0873905172 -0.0288937761
N 0.4421518325 0.0374756574 2.1341825351
C 0.5088698177 -1.0793747813 2.7715033636
O 0.7307707585 -1.2699325348 4.0619923210
C 0.8585727698 -0.1341349521 4.9577531811
C 0.1768268719 1.1015389314 4.3688510105
C 0.6176524254 1.2768280219 2.9149901987
H 1.9281410489 0.0411564959 5.1042130602
H -0.9118205766 0.9765120785 4.4179576948
H 0.4436728356 1.9756190717 4.9678949004
H 1.6735734262 1.5723846611 2.8635222949
H 0.0437291957 2.0640179488 2.4237257872
C 0.2109864750 -0.5769901058 6.2820322978
O -0.6327165672 -1.4293339167 6.3436529725
C 0.7076490535 0.2390873485 7.4988559235
O 1.4059440901 1.2019850919 7.3407214602
Cl 0.1498964210 -0.3433987681 9.0475969831
C -0.1870016106 -5.4512463592 2.0477538167
O -1.2276403072 -4.9358753507 2.3787311823
C -0.0600337816 -6.9819735458 1.8194683956
O 0.9260956620 -7.4553789390 1.3323507503
Cl -1.4695082926 -7.9091908609 2.2991265478
O -2.0807684932 -0.0592734597 0.0377356738
C -2.7160799803 -0.8022617230 -1.0639092614
N -4.0371258560 -0.3827049568 -1.3581430934
C -4.9502283448 -0.3785412254 -0.2083739320
C -4.3025673267 0.3230363709 1.0165646501
C -2.8834918139 -0.1924408734 1.2475284358
H -5.8486632470 0.1724043172 -0.4944971126
H -4.0734309990 0.5005773305 -1.8593027236
H -2.7506062501 -1.8517192860 -0.7504599417
H -2.3605572584 0.3841952933 2.0116710119
H -2.8823214808 -1.2487479488 1.5468282073
H -4.9031186821 0.1799623975 1.9204294907
H -4.2735426044 1.3999415485 0.8148969247
N -0.5218153628 -0.4218511697 -2.0510500592
C -1.7706414345 -0.6776746112 -2.2478234429
O -2.3801940929 -0.9059435034 -3.3983449809
C -1.6191554329 -0.9121707940 -4.6357240302
C -0.1604680413 -1.2815034907 -4.3639838433
C 0.3743456931 -0.4135503412 -3.2247565126
H -1.6961571690 0.0884242664 -5.0711435091
H -0.0990079374 -2.3422654068 -4.0921267015
H 0.4267188192 -1.1297581801 -5.2728838407
H 0.5081709164 0.6228902053 -3.5582703728
H 1.3516192160 -0.7757857149 -2.8963683484
C -2.3127297446 -1.9363751983 -5.5502624789
O -3.0020242228 -2.8271842270 -5.1359284329
C -1.9698428233 -1.7271944174 -7.0452117023
O -1.1746795041 -0.8917940726 -7.3764032505
Cl -2.8051988571 -2.7973059566 -8.1430235774
C -5.3799729448 -1.8097223249 0.1453681029
O -4.7112905879 -2.7914045303 -0.0746675610
C -6.7322283880 -1.8893748862 0.9040374279
O -7.2739782597 -0.9006207890 1.3066745575
Cl -7.3427379018 -3.5174175036 1.1359839091
