139
# extracted from Terachem optimization
Fe -0.5072123467 -0.3020943897 -0.3939028400
N 0.3734535839 1.6006702504 -0.2214004058
C 1.6445082132 1.7221740532 -0.0645340537
O 2.1608357707 2.9328664212 0.0107810441
C 1.0321190553 3.8909895572 0.0323036447
C -0.1747273526 2.9705999918 -0.3364455585
H -1.0187171442 3.0994543888 0.3433535591
H -0.5254098728 3.1256202065 -1.3613995960
H 1.2541228878 4.6272421176 -0.7405742042
O 1.8797570078 -0.6053265540 -0.3227854939
C 2.5929307970 0.5598596618 0.0705430633
O 2.9899337974 0.5302793548 1.4090869608
C 3.9126649272 -0.5596795888 1.7257704873
C 3.2252608718 -1.8667539326 1.2814874475
C 2.7119392598 -1.7901406807 -0.1495868349
H 3.9277607030 -0.5516382327 2.8187868285
H 3.4582844962 0.6869362558 -0.5951123151
H 2.0688396602 -2.6352097989 -0.3958455250
H 3.5230054205 -1.7332150966 -0.8864266805
H 3.9026702849 -2.7121703059 1.4109944194
H 2.3663718238 -2.0261334564 1.9421575964
C 5.3384767386 -0.2460305543 1.2403201100
C 5.6549614653 0.9854701483 0.8308248335
C 6.3672935117 -1.3847292005 1.3503469288
N 6.0741711106 -2.2015722114 2.4862526202
C 6.4543931865 -2.2388937433 0.0791413398
Cl 8.1080582888 -0.6362110582 1.5240044139
H 6.6711412306 1.2519527633 0.5681291681
H 4.9142451695 1.7760337860 0.7911226308
H 6.6971970847 -3.0060906164 2.5261304964
H 6.1952509110 -1.6845623814 3.3554574662
H 6.6972731570 -1.6137223378 -0.7818544775
H 7.2378258341 -2.9949825171 0.1854334324
H 5.5072936842 -2.7556582428 -0.1069176974
C 0.9492916774 4.5699411546 1.3885486877
C 1.4676732296 4.0024316893 2.4788520991
C 0.3127402298 5.9670196356 1.3234836014
N 1.1875901488 6.8070212712 0.5825032582
C -1.0852025599 5.9843412108 0.6930726184
Cl 0.0369267067 6.6064105539 3.0918753616
H 1.4216053725 4.4917306294 3.4437322537
H 1.9924137757 3.0538057555 2.4268811868
H 0.7970942409 7.7341600678 0.4291770259
H 2.0991016133 6.9038668627 1.0236785168
H -1.7780516571 5.3535944803 1.2542103848
H -1.4814683108 7.0033829288 0.7006461792
H -1.0415967774 5.6508376045 -0.3504893796
N -0.8291240188 -2.3622026564 -0.0877272717
C -1.1089318252 -2.7477036894 1.1087348860
O -1.3542707986 -4.0246447498 1.3230038678
C -1.1011604523 -4.7414832017 0.0537384868
C -0.9088710426 -3.5588859225 -0.9518101835
H 0.0067403799 -3.6586230893 -1.5377700407
H -1.7521401667 -3.4552669569 -1.6422230599
H -2.0032266240 -5.3206247313 -0.1467960825
O -1.1301082084 -0.4921892571 1.8022657644
C -1.1443369714 -1.8278294585 2.3049675940
O -0.0256228254 -2.1322125932 3.0781200763
C 0.1074687517 -1.3132344612 4.2825941103
C 0.0592637674 0.1628994807 3.8341123955
C -1.1191716930 0.4533564844 2.9169702476
H 1.1310702711 -1.5247815865 4.6021980264
H -2.0735460710 -1.9695788280 2.8735147993
H -1.0474290717 1.4457773079 2.4690317706
H -2.0849698274 0.3619727256 3.4294306989
H 0.0391253301 0.8167326766 4.7071336723
H 0.9834152049 0.3770078870 3.2864176831
C -0.8359368179 -1.7911246150 5.3971406926
C -1.5150070323 -2.9347665765 5.2743530406
C -0.8702339191 -0.9311349390 6.6730809988
N 0.3991556940 -0.3053578536 6.8780275398
C -1.9942681340 0.1118215066 6.6579934503
Cl -1.2865578755 -2.0419767343 8.1597221578
H -2.1164949184 -3.3249535201 6.0862492929
H -1.4522163836 -3.5408177554 4.3777980268
H 0.3663316836 0.3273420727 7.6752745059
H 1.1234185373 -0.9944309764 7.0735475876
H -2.9622469159 -0.3766137875 6.5331399522
H -2.0097312178 0.6657005049 7.6012853323
H -1.8508470056 0.8316684690 5.8446004167
C 0.0899470050 -5.6716159794 0.2061705876
C 1.0066328680 -5.4751752215 1.1552595341
C 0.0423870528 -6.8678813344 -0.7566681304
N -1.0405866088 -7.6959073645 -0.3588247156
C -0.1148797787 -6.4762358393 -2.2310564169
Cl 1.7084769101 -7.7824340167 -0.6926537738
H 1.8485668814 -6.1466812000 1.2707965882
H 0.9176105210 -4.6641875139 1.8714605927
H -1.1893977556 -8.4775995056 -0.9931207303
H -0.9296760354 -8.0549232563 0.5863568628
H 0.7142465386 -5.8463680950 -2.5607453769
H -0.1205525953 -7.3752401084 -2.8534875252
H -1.0656389537 -5.9540825335 -2.3906813575
N -2.4577613533 0.2691577260 -1.0481045741
C -2.6388496137 0.4793143407 -2.3031813904
O -3.8225876164 0.8863330768 -2.7206064742
C -4.6540283409 1.1163358766 -1.5182756425
C -3.7467335397 0.5428712638 -0.3809408130
H -3.6009363966 1.2541387884 0.4343470745
H -4.1441823750 -0.3867075330 0.0389659452
H -5.5600063253 0.5275444740 -1.6671593656
O -0.4549221894 -0.3206344915 -2.6846416896
C -1.5594577777 0.3040002827 -3.3396186955
O -1.2464515474 1.5699259019 -3.8290639817
C -0.2228459052 1.5569704878 -4.8704564536
C 1.0028154299 0.8208411057 -4.2860342407
C 0.6403204871 -0.5067642855 -3.6310023208
H 0.0458303300 2.6125335018 -4.9595790476
H -1.9003202268 -0.3633340034 -4.1432213279
H 1.4644129240 -0.9000992027 -3.0346965249
H 0.3228954113 -1.2626844676 -4.3595466087
H 1.7594649514 0.6818288353 -5.0595512755
H 1.4405105176 1.4750077268 -3.5230682267
C -0.8017814499 1.1081431048 -6.2224563716
C -2.1219890011 0.9868697457 -6.3861822430
C 0.2066887377 0.9159062278 -7.3680643447
N 1.2984430082 1.8260405390 -7.2167105127
C 0.7176630430 -0.5265867101 -7.4801109551
Cl -0.6714280121 1.2269853359 -9.0266773410
H -2.5526783680 0.7565272011 -7.3526239147
H -2.8124818293 1.1606836287 -5.5689186992
H 2.0106467875 1.6605310281 -7.9255469687
H 0.9929794110 2.7923332372 -7.3202590591
H -0.1171293917 -1.2154085911 -7.6195219155
H 1.3894273569 -0.6229504839 -8.3381191864
H 1.2726603556 -0.8136999234 -6.5803774671
C -5.0089774907 2.5882625747 -1.4009548529
C -4.2667834292 3.5273365448 -1.9894507834
C -6.3248010886 2.8292947460 -0.6454595947
N -7.3802383596 2.3051872946 -1.4390252911
C -6.3605172109 2.1988260599 0.7521376065
Cl -6.5273436223 4.6916665055 -0.3252663497
H -4.5251833263 4.5765718219 -1.9183540701
H -3.4051385405 3.2661092332 -2.5960404665
H -8.2829565138 2.3659643298 -0.9734999485
H -7.4472583728 2.7610409400 -2.3460287499
H -5.5604931960 2.5940981213 1.3820429482
H -7.3132445138 2.4268765791 1.2378750483
H -6.2747374635 1.1081056633 0.6820044809
