112
# extracted from Terachem optimization
Fe -0.3979633685 -0.1883976603 0.0652560648
O -0.3064158320 2.0138927335 -0.5987438968
C 0.9871175491 2.6142948329 -0.7306161538
C 1.2013403044 3.6818060393 0.3198055629
C 0.1799415577 4.2173236845 1.0025620358
C -1.2577423349 3.8629197475 0.7014459219
C -1.3473322194 3.0361606976 -0.5736980887
H 2.2203701456 4.0078599198 0.5077793224
H 1.0571623656 3.0641207954 -1.7355853808
H -2.2908833700 2.4988975159 -0.6495458465
H -1.2206281587 3.6538865808 -1.4704368273
H -1.8594748669 4.7702712573 0.5687995814
H -1.7078693579 3.3466425536 1.5520319992
N 1.6674606922 0.3241254200 -0.3078584259
C 2.0385871831 1.5071413906 -0.6581657215
S 3.6279283742 2.0880567706 -1.1310365958
C 4.6637460596 0.5889316868 -0.8260095674
C 3.8554048897 -0.6824205904 -1.1124861362
C 2.6381195863 -0.7824743785 -0.1986420328
H 4.9876724178 0.5866806114 0.2188774473
H 3.5465903789 -0.6994475267 -2.1642670380
H 4.4849614316 -1.5574599638 -0.9349687259
H 2.9573532061 -0.8388231568 0.8505088089
H 2.1074561623 -1.7109070628 -0.4104597735
C 5.9119628145 0.7080987258 -1.6983334298
O 6.0296568274 1.5218243828 -2.5881475463
C 7.0357130068 -0.2895036504 -1.3325158953
O 6.8827224542 -1.0648365528 -0.3962569937
N 8.1141846448 -0.1798690563 -2.1280536895
H 8.1471773751 0.5289803447 -2.8492514710
H 8.9265745061 -0.7571094096 -1.9558256446
C 0.5220834750 5.2040047281 2.0825007806
O 1.4212464853 6.0146530526 1.9730963435
C -0.2415089002 5.0677378684 3.4209538126
O -0.9024082894 4.0587240777 3.6660736434
N -0.0521612500 6.1120933232 4.2417228167
H 0.5991535875 6.8416154024 3.9800753053
H -0.4264761821 6.0901345394 5.1809912921
O -0.3944930398 -2.3263788337 0.6860936782
C 0.0143334518 -2.6659537066 2.0168445235
C 1.2333734830 -3.5583179912 1.9879085466
C 1.6033893931 -4.2177472020 0.8809103883
C 0.7923424219 -4.1656923012 -0.3971781988
C -0.5603763774 -3.5135440429 -0.1350281537
H 1.8037679389 -3.6704779002 2.9054401712
H -0.8178391820 -3.2085978469 2.4990315391
H -1.0372871385 -3.1654377028 -1.0514049723
H -1.2446849008 -4.1913903725 0.3889518027
H 0.6279706351 -5.1820610484 -0.7790478149
H 1.3519487834 -3.6387333246 -1.1754444090
N -0.1252606139 -0.2492389292 2.2308505805
C 0.1729628147 -1.3618836262 2.8104354538
S 0.6595536798 -1.6622671952 4.4764328886
C 0.8269047139 0.0713240320 5.0900120271
C -0.2738652756 0.9446203212 4.4784813200
C -0.1271547636 1.0331537914 2.9639123166
H 1.8072262362 0.4586724317 4.7919722317
H -1.2579235205 0.5445275605 4.7511861593
H -0.1992784927 1.9595808766 4.8755951486
H 0.7916651350 1.5718335699 2.7030269544
H -0.9508146352 1.6294008691 2.5698677695
C 0.8066272731 0.0183271733 6.6150670075
O 0.5604326935 -0.9887035019 7.2432443364
C 1.1794167856 1.3496737716 7.3077430583
O 1.4630365449 2.3346415926 6.6357164921
N 1.1522561736 1.2650987373 8.6493190074
H 0.9351115328 0.3866308067 9.1018304091
H 1.4076393366 2.0677415172 9.2090319678
C 2.8643148705 -5.0329164384 0.9507297918
O 3.1739548143 -5.6779297988 1.9328365174
C 3.8268698265 -4.9262792260 -0.2558679451
O 3.6836808841 -4.0313913224 -1.0880810616
N 4.7977927352 -5.8521178504 -0.2409596902
H 4.8822726824 -6.4787847387 0.5497624577
H 5.5330287638 -5.8235969158 -0.9350206172
O -2.5951647444 -0.3457020815 0.0892211167
C -3.3366938673 -0.5788979647 -1.1153331629
C -4.4217049438 0.4590000800 -1.2855126535
C -4.8073979247 1.2621285844 -0.2841525323
C -4.2388234457 1.1303234058 1.1126081667
C -3.4768756230 -0.1812322596 1.2359531955
H -4.9040931464 0.5336942934 -2.2557996383
H -3.7986257700 -1.5792857266 -1.0465763272
H -2.8175446752 -0.2079695407 2.1027035144
H -4.1516278560 -1.0448778554 1.2727889802
H -5.0485488270 1.1442999869 1.8538454372
H -3.6015967904 1.9877318872 1.3440985779
N -1.0764734982 -0.6291921450 -1.9882867268
C -2.3320403993 -0.6474358233 -2.2729716458
S -3.1283719337 -0.8460955020 -3.8281894032
C -1.6844984210 -0.9572086688 -4.9709462916
C -0.4789922190 -1.5868748804 -4.2632517397
C -0.0554188690 -0.7725800370 -3.0421267848
H -1.4188573730 0.0521234935 -5.3005656506
H -0.7105718805 -2.6187307481 -3.9726301317
H 0.3503516521 -1.6091170697 -4.9746764825
H 0.2574506151 0.2350901740 -3.3455554546
H 0.8134836006 -1.2455511117 -2.5780439658
C -2.1424681884 -1.7383273876 -6.2051529367
O -3.1978814502 -2.3291533478 -6.2690139343
C -1.1534688942 -1.6820039664 -7.3926747064
O -0.0993860118 -1.0661667491 -7.2805426383
N -1.5890762752 -2.3523289950 -8.4728008481
H -2.4939001054 -2.8048637910 -8.4652032718
H -1.0313419798 -2.3609020991 -9.3166944052
C -5.8574211141 2.2934031463 -0.5919784340
O -6.7959073690 2.0707452692 -1.3310607662
C -5.6331515743 3.7066708263 -0.0078085583
O -4.5372872639 4.0238429502 0.4506928886
N -6.7142641591 4.4961964251 -0.1099188863
H -7.5365257602 4.1619221073 -0.5966295859
H -6.6612134188 5.4659216070 0.1725827725
