139
# extracted from Terachem optimization
Fe -0.0095169075 -0.0572896235 -0.0232148414
N -0.0144305363 1.9453639365 0.4069026607
C 1.1482369488 2.5297911633 0.3337241174
N 1.3895929943 3.8450591600 0.5139701367
C 0.3230755456 4.8400042437 0.6678441941
C -0.9875414216 4.2357438584 0.1517546899
C -1.1696183041 2.8034100686 0.6760894322
H 0.2282354720 5.0760737583 1.7374190252
H -0.9657559777 4.2144837079 -0.9455963896
H -1.8416752082 4.8515536654 0.4501906092
H 2.2600919367 4.2933597447 0.2147224029
H -1.3563780676 2.8207013273 1.7604976107
H -2.0453194901 2.3397643931 0.2169636491
N 1.9662263681 0.4148410901 -0.3119165398
C 2.2984066567 1.6191229293 0.0454723089
N 3.5640742860 2.1096364605 0.1459391732
C 4.7378123800 1.2289297036 -0.0116923521
C 4.3552261386 0.1530546454 -1.0260904982
C 3.0435950348 -0.5306743590 -0.6233284708
H 4.9671943127 0.7453713990 0.9458490100
H 4.2432546746 0.6066266013 -2.0188419986
H 5.1507664703 -0.5949343610 -1.0865186422
H 3.6903123031 2.9253897321 0.7332879509
H 3.2050438090 -1.1755950545 0.2509192662
H 2.6932565982 -1.1824501125 -1.4291381003
C 5.9722161314 2.0917086207 -0.3889750029
N 5.8998643441 2.8255518212 -1.6462420922
C 7.2688723638 1.2619001703 -0.3790884114
N 7.4152959554 0.5094120359 0.8721230216
H 6.0652708501 2.8483711544 0.4083844310
H 5.9059416101 2.1971488845 -2.4471855650
H 5.0542881664 3.3883688643 -1.7037485062
H 7.2343565554 0.5373251544 -1.2033941778
H 8.0967443000 1.9500736066 -0.6032577647
H 8.1573533650 -0.1808011290 0.7729091207
H 7.7218848618 1.1350849512 1.6166559684
C 0.7682720501 6.1260314882 -0.0855283923
N 2.2194650726 6.2927407849 0.0917509042
C -0.0285856157 7.3709691331 0.3680575832
N 0.3797385894 7.7729388613 1.7200030832
H 0.5828639406 5.9587404004 -1.1547209572
H 2.3582891511 6.7993224846 0.9708887535
H 2.5970187834 6.8815964035 -0.6483289591
H 0.2109440798 8.1839767095 -0.3256855287
H -1.1101432393 7.1889458581 0.2713737598
H 0.4002776229 8.7848090946 1.8086479606
H -0.2723854026 7.4379015351 2.4240322162
N 0.2758497598 -2.0575842674 -0.3618143741
C 0.5866160664 -2.7378454621 0.7067378667
N 0.7645121695 -4.0731361918 0.7758741381
C 0.4910274415 -4.9745881564 -0.3462869798
C -0.4397889976 -4.2545340990 -1.3281072883
C 0.0465426677 -2.8219480832 -1.5911132840
H 1.4453410361 -5.2056799851 -0.8412402238
H -1.4509553966 -4.2165645664 -0.9015430007
H -0.5050009079 -4.8016181748 -2.2739173552
H 0.7903963733 -4.5873479138 1.6595846471
H 0.9791727254 -2.8415882911 -2.1747019236
H -0.6877542092 -2.2818961279 -2.1927343138
N 0.4265425575 -0.6796848859 1.8497078401
C 0.7861394316 -1.9237646960 1.9467990033
N 1.2821331018 -2.5273141870 3.0608793725
C 1.5511108409 -1.7762314591 4.3030768358
C 0.5899335383 -0.5888391771 4.3447891919
C 0.6065062242 0.1828890669 3.0201153474
H 2.5803910703 -1.3980936241 4.2887791052
H -0.4285304877 -0.9439310792 4.5465533699
H 0.8781166744 0.0800694655 5.1604344157
H 1.8148285499 -3.3782498882 2.9271115392
H 1.5543292813 0.7268614956 2.9051228519
H -0.1872644404 0.9348369447 3.0010775178
C 1.4418101177 -2.7560919477 5.5057726399
N 0.1486601563 -3.4004469299 5.6990551441
C 1.8627497819 -2.0900694021 6.8263883800
N 3.1634474627 -1.4230080426 6.7006488858
H 2.1657873084 -3.5628990279 5.3008408928
H -0.5493025621 -2.7434497737 6.0423266577
H -0.2009394640 -3.7957864184 4.8292236445
H 1.1200709779 -1.3257046809 7.0904422388
H 1.8118406838 -2.8594844394 7.6108392391
H 3.3260610671 -0.8337914811 7.5149657286
H 3.9101493298 -2.1173368999 6.7117158989
C -0.0910974190 -6.2911673129 0.2396657706
N 0.6100276600 -6.5853286182 1.4990774390
C -0.0117681586 -7.4619451614 -0.7674404517
N 1.3834886003 -7.8804418427 -0.9500066830
H -1.1453627289 -6.1047573778 0.4836806108
H 1.4656360796 -7.0925808115 1.2554645090
H 0.0508039475 -7.2129749448 2.0738778750
H -0.5740847001 -8.2988032176 -0.3398222121
H -0.5186799034 -7.1942644561 -1.7075907145
H 1.4503992444 -8.8886590062 -1.0560335719
H 1.7875602566 -7.4778733919 -1.7913357309
N -2.0263846358 -0.3420913571 0.1352335984
C -2.7075702938 -0.0967136907 -0.9496197810
N -4.0430339170 -0.2183874949 -1.0964163441
C -4.9127417719 -0.7364172016 -0.0400007857
C -4.0621094857 -1.5922902432 0.9038757613
C -2.7678836113 -0.8604942193 1.2885495253
H -5.3283898515 0.1191131826 0.5125972035
H -3.8052040748 -2.5324448740 0.3981557054
H -4.6214952425 -1.8490812530 1.8091120799
H -4.5103587463 -0.2567446606 -2.0064708834
H -2.9876863830 -0.0240721231 1.9677016754
H -2.1081200801 -1.5397779249 1.8330268298
N -0.6115218768 0.3817374594 -1.9133821235
C -1.8960727639 0.4036776422 -2.1013436441
N -2.5335430698 0.8023019734 -3.2356776121
C -1.8034823709 1.3524239940 -4.3945494050
C -0.3975106784 0.7518788320 -4.3788623253
C 0.2454144246 0.8789398514 -2.9928902684
H -1.7261467041 2.4422378095 -4.2997429479
H -0.4475469313 -0.3083702436 -4.6564061126
H 0.2254027018 1.2610830109 -5.1198630831
H -3.5032412279 1.0795401708 -3.1457663384
H 0.4990982937 1.9263199038 -2.7778002636
H 1.1835235135 0.3191539969 -2.9555788442
C -2.6308324745 1.0668721361 -5.6800202700
N -2.8431511977 -0.3350660198 -6.0163175492
C -2.0547374717 1.7926893671 -6.9070458279
N -1.8753240565 3.2250335450 -6.6423998136
H -3.6295248413 1.4964748806 -5.4919236032
H -1.9833756645 -0.7786941057 -6.3336386744
H -3.1828819748 -0.8598063967 -5.2135030611
H -1.0695418098 1.3710291580 -7.1470330090
H -2.7097275362 1.5600114664 -7.7594949474
H -1.3112866640 3.6421562265 -7.3803709717
H -2.7773985122 3.6983612076 -6.6870985496
C -6.0860337585 -1.5036297083 -0.7191554098
N -6.4124463289 -0.8384439259 -1.9903817198
C -7.3139686801 -1.6171220166 0.2147241296
N -7.9791799743 -0.3143119837 0.3367174152
H -5.7257099737 -2.5133548917 -0.9549926078
H -7.0915284076 -0.1023183752 -1.7758483598
H -6.8744901049 -1.4920669203 -2.6196596430
H -8.0130146541 -2.3249204499 -0.2431582429
H -7.0185479125 -2.0519996378 1.1821060601
H -8.9888462821 -0.4217648433 0.3719564953
H -7.7129352043 0.1659789095 1.1920496657
