160
# extracted from Terachem optimization
Fe 0.3601389370 -0.1122139059 -0.1234957249
N 0.8680955468 1.8159992006 -0.3559700006
C 2.1198982847 2.1314527409 -0.4638951905
N 2.3957984136 3.4175807392 -0.8012182907
C 1.1144689777 4.1591935788 -0.8882325039
C 0.0796872638 3.0579896776 -0.4822098059
H -0.4139774815 3.2559882726 0.4737406407
H -0.6988605839 2.9319297873 -1.2381453672
H 0.9513251219 4.3988090493 -1.9461083550
H 3.1842545312 3.8845665682 -0.3640088783
O 2.4994050486 -0.1319778166 -0.0141094854
C 3.1960977652 1.0849954107 -0.3240057262
C 4.2490635761 1.4596763961 0.6884520869
C 4.6613027061 0.6621741997 1.6803506084
C 4.0415345767 -0.7164453260 1.8076459895
C 3.3822566553 -1.1561516464 0.5103480197
H 4.7104713847 2.4264148408 0.5199493773
H 3.6768550904 0.9698079550 -1.3118176921
H 2.7503160812 -2.0319468889 0.6495011317
H 4.1399571775 -1.3712217298 -0.2551342788
H 4.8275704436 -1.4396040166 2.0496464367
H 3.3105989725 -0.7428883394 2.6250250934
C 5.7538694695 1.1089784119 2.6804388533
C 5.9064891831 2.6455848427 2.6823906762
C 5.3785583225 0.6578176125 4.1086557184
C 7.1009742167 0.4386932415 2.2268944332
N 7.1183508203 -0.9743585490 2.4041028637
O 7.3476798168 0.7819621776 0.9103029064
Cl 8.5577829507 1.1944634424 3.2626741284
H 4.9248877859 3.1209908041 2.7747070880
H 6.5235725139 2.9657001469 3.5228988524
H 6.3876750229 3.0049607961 1.7692087499
H 5.1986010908 -0.4181982112 4.1866445935
H 6.1732837431 0.9273821464 4.8097752578
H 4.4654647396 1.1709388845 4.4302416305
H 7.9319442032 -1.3813013419 1.9459157193
H 7.1646663003 -1.2244358870 3.3889367616
H 8.3030819306 0.7169763857 0.7422584520
C 1.1028688882 5.5607457282 -0.1758052460
C 1.9302619518 6.5280292827 -1.0541509370
C -0.3561988910 6.0600674288 -0.1465706177
C 1.7299367272 5.4865109994 1.2580159007
N 1.1244480682 4.5220204107 2.0987818511
O 3.1017935051 5.1875539240 1.2417338719
Cl 1.6071496118 7.2314496202 2.0625722171
H 1.4786610406 6.6004630706 -2.0482724981
H 1.9503915306 7.5322529584 -0.6250423362
H 2.9629770280 6.1906220270 -1.1902462407
H -1.0008037232 5.4642749617 0.5097253290
H -0.4043627030 7.0974796079 0.1891803629
H -0.7794604358 6.0151045965 -1.1565066374
H 1.6156186264 4.5042650570 2.9908914412
H 0.1509805123 4.7518382875 2.2774181026
H 3.5949419211 6.0191918103 1.1404872666
N 0.0849385832 -2.0673710648 0.2691232151
C -0.3300264105 -2.3487981085 1.4630983054
N -0.6287039551 -3.6466659840 1.7213597138
C -0.3333280737 -4.4318121387 0.4945103721
C 0.2816076448 -3.3447664549 -0.4497864998
H 1.3481901101 -3.4808115533 -0.6481438969
H -0.2375297991 -3.3286725953 -1.4113298539
H -1.2981452669 -4.7320680925 0.0691857785
H -0.3338129408 -4.0467855590 2.6083159214
O 0.1840317105 -0.1184431463 1.9583645104
C -0.5793709246 -1.2331589736 2.4500147615
C -0.2486596377 -1.5733446840 3.8804329302
C 0.4633342376 -0.7808829802 4.6952557416
C 0.9318867845 0.5669417618 4.1787324704
C 0.2074233627 0.9797259583 2.9038236643
H -0.6524645252 -2.5162510104 4.2326818285
H -1.6527879746 -0.9847985163 2.3720952206
H 0.7070882461 1.7989798913 2.3863375263
H -0.8312433148 1.2689209936 3.1162355036
H 0.7371802394 1.3304135280 4.9387830378
H 2.0143237853 0.5553428143 4.0025625054
C 0.8030629403 -1.2092973997 6.1429166612
C 0.8402464347 -2.7497852844 6.2590749340
C 2.1877914152 -0.6640844559 6.5547812724
C -0.3406491854 -0.6432903034 7.0793081238
N -0.3906570022 0.7869779885 7.0728818667
O -1.5988308545 -1.1410606310 6.7281682062
Cl -0.0928564287 -1.2940329494 8.8121372172
H 1.4352550527 -3.1758098912 5.4446172392
H 1.2908790392 -3.0483638148 7.2071150811
H -0.1639602023 -3.1799875304 6.2314103234
H 2.2794563844 0.4220238261 6.4555293100
H 2.3959162526 -0.9273866324 7.5947042548
H 2.9682134176 -1.1179442630 5.9340162720
H -1.1642063017 1.0879100435 7.6655489354
H 0.4586614913 1.1897590310 7.4631739365
H -1.8653518283 -0.6510126098 5.9309928160
C 0.4145572663 -5.7908544326 0.7419215472
C -0.6092851959 -6.7649048012 1.3710298000
C 0.8399428498 -6.3470329520 -0.6328144758
C 1.6338586277 -5.6105645778 1.7095120544
N 2.5692751355 -4.6418410585 1.2751095152
O 1.2526452315 -5.2368330152 3.0099772616
Cl 2.4981135272 -7.3174678224 1.9171735441
H -1.4480844489 -6.9111244085 0.6839119760
H -0.1604715647 -7.7423976819 1.5601502902
H -1.0201957532 -6.3849252733 2.3119079715
H 1.5945431100 -5.7298751582 -1.1331395808
H 1.2422452373 -7.3571949962 -0.5355809163
H -0.0313846967 -6.3965935279 -1.2951138987
H 3.3043503412 -4.5479188181 1.9736844303
H 2.9973149899 -4.9166817528 0.3954125219
H 1.0498468614 -6.0440928640 3.5121323746
N -1.5777291850 0.1904974069 -0.4786537775
C -1.9953620556 -0.1310630752 -1.6641706315
N -3.3281752428 -0.0303265383 -1.8845015976
C -3.9613044114 0.5080624931 -0.6558025749
C -2.7138397447 0.8144392064 0.2359355246
H -2.5097602720 1.8823015149 0.3538416438
H -2.8353959340 0.3830494250 1.2322706997
H -4.5078096551 -0.3187524437 -0.1861568132
H -3.6706775929 0.3037007266 -2.7807475281
O 0.2764563582 -0.4630536992 -2.1498220661
C -1.0346450192 -0.6454262012 -2.7111478661
C -1.2137825726 0.0313670760 -4.0485301934
C -0.2392050887 0.6535980756 -4.7231790740
C 1.1578035163 0.6690371521 -4.1314121427
C 1.3306784658 -0.4716069554 -3.1452340266
H -2.2064285066 -0.0751761798 -4.4721699495
H -1.2177522862 -1.7277861397 -2.8305767452
H 2.2522415586 -0.4031949925 -2.5684607102
H 1.3029709602 -1.4391165866 -3.6614142635
H 1.8910760631 0.5378099670 -4.9329067402
H 1.3673942979 1.6289549177 -3.6407569994
C -0.4938960025 1.3234999449 -6.0941677505
C -1.9948915326 1.6240623188 -6.2919408908
C 0.2798162586 2.6565061936 -6.1797241954
C -0.0026392442 0.3157764016 -7.1971314530
N 1.4092418162 0.1362966004 -7.2095660917
O -0.6593742749 -0.8887895599 -7.0177933313
Cl -0.5466128192 0.9767036291 -8.9366203643
H -2.3931515301 2.1400805976 -5.4128001573
H -2.1425516436 2.2655665224 -7.1618774332
H -2.5731188864 0.7117637249 -6.4581587872
H 1.3537441128 2.5487216199 -6.0015304891
H 0.1385705237 3.1101351367 -7.1645677944
H -0.1104559242 3.3558596258 -5.4321683979
H 1.6657406975 -0.6435648300 -7.8123186725
H 1.8879130372 0.9635296542 -7.5583613632
H -0.6812110689 -1.3640515250 -7.8657141458
C -5.0591079795 1.6116183566 -0.8890497043
C -6.3390080006 0.8807070232 -1.3599065398
C -5.3483051989 2.2837075674 0.4682714139
C -4.6124803919 2.6469992421 -1.9778557169
N -3.3694740213 3.2632082379 -1.7016131358
O -4.4932466978 2.0720042066 -3.2538935707
Cl -5.9876672337 3.9772212712 -2.1565342169
H -6.6833786835 0.2022126279 -0.5738061143
H -7.1478160017 1.5857487949 -1.5654330019
H -6.1654173813 0.2785366283 -2.2579021143
H -4.5006844156 2.8632340234 0.8507910576
H -6.2057116295 2.9556469293 0.3952031832
H -5.5866226758 1.5199983551 1.2170802445
H -3.1139570702 3.8643937216 -2.4830413469
H -3.4234502440 3.8332952116 -0.8625045324
H -5.3651584160 2.0906307233 -3.6830569949
