124
# extracted from Terachem optimization
Fe -0.0830998304 -0.2352973715 -0.2063602713
O -0.0477412108 1.9896893226 -0.4243327188
C 1.2021380682 2.6232585794 -0.6940160384
S 1.5399780342 3.9572016583 0.5403587758
C 0.0296367509 4.9739210950 0.1587698164
C -1.2330080721 4.0903744154 0.1602241237
C -1.1791384498 2.8610634491 -0.7439106281
H -0.0225975042 5.6777957576 0.9950922030
H 1.1495621986 3.1027694600 -1.6799435013
H -2.0614419633 2.2392025643 -0.5986067352
H -1.1051915132 3.1417805631 -1.7973718534
H -2.0953381886 4.6913694028 -0.1561095962
H -1.4214660473 3.7787406491 1.1931061283
N 1.9765185012 0.3637351517 -0.5638362890
C 2.3167773664 1.5937063281 -0.7075088537
C 3.7099126580 2.1054978012 -0.9601124225
C 4.8081836513 1.0459049062 -0.8271757983
C 4.2893868063 -0.3100175326 -1.3398434221
C 3.0077277316 -0.6969584269 -0.6043310255
H 5.1084358540 0.9130506835 0.2179125287
H 4.0928560204 -0.2460982355 -2.4185234368
H 5.0402731507 -1.0893613551 -1.1813465869
H 3.7450009221 2.5323050102 -1.9743322131
H 3.9075365035 2.9561113601 -0.2977454779
H 3.2181376069 -0.9787677446 0.4351252474
H 2.5447772215 -1.5719895315 -1.0688666455
C 6.0488695955 1.4729549021 -1.6300614368
O 5.9675735323 2.3122345570 -2.5023675531
C 7.3900629085 0.7717801281 -1.3533320576
N 7.4039548487 -0.0316449251 -0.1399640351
H 7.5728747806 0.1264106673 -2.2216741864
H 8.1587239827 1.5567962191 -1.3959661133
H 8.0034866436 -0.8460956093 -0.2390643791
H 7.7459578948 0.4970365923 0.6588339389
C 0.2658937594 5.7396599057 -1.1463217420
O 0.1978651245 5.1899483841 -2.2324831143
C 0.6354424020 7.2112757878 -1.0284549895
N 0.6566643308 7.8382453304 -2.3114614839
H -0.0801356247 7.7199604403 -0.3641328200
H 1.6073394895 7.2517508252 -0.4925393370
H 0.9782938347 8.7967755436 -2.3660820649
H 0.9054857398 7.2499312865 -3.0987548048
O 0.1627939318 -2.3446989817 0.4157611319
C 0.2997399501 -2.6595653752 1.8035138128
S 1.7989749512 -3.6898821437 2.1089368979
C 1.2918562065 -5.1052003784 1.0232413779
C 0.8853361651 -4.5966125296 -0.3678267295
C -0.1949437956 -3.5171380566 -0.3863156380
H 2.1850409250 -5.7343511282 0.9652670692
H -0.5708839234 -3.2551245709 2.1086801597
H -0.3265756996 -3.1235062169 -1.3941220035
H -1.1490091309 -3.8993299910 -0.0155903695
H 0.5119257801 -5.4384948602 -0.9650863926
H 1.7871426808 -4.2227463461 -0.8651848006
N 0.1469701850 -0.2763288884 2.0013144833
C 0.3296166663 -1.3857661860 2.6244325492
C 0.4844043510 -1.5658910738 4.1123356849
C 0.4784578711 -0.2712371126 4.9342228857
C -0.3680787908 0.8021671994 4.2261222487
C 0.0989632862 0.9806339913 2.7834550666
H 1.4892921587 0.1320732651 5.0579051520
H -1.4261452956 0.5060352645 4.2338655989
H -0.2838087205 1.7585352826 4.7503934987
H -0.3325755787 -2.2139088437 4.4642597891
H 1.3980542863 -2.1399387979 4.3070443416
H 1.0989676234 1.4307995890 2.7457165338
H -0.5630102305 1.6645283494 2.2487999955
C -0.0983872483 -0.5414955891 6.3362269814
O -0.7867411336 -1.5166820098 6.5495952075
C 0.1533613567 0.4848720152 7.4573455093
N 1.1723242230 1.4732386017 7.1469684167
H -0.8084002301 0.9864033489 7.6214375642
H 0.3464131447 -0.1033526987 8.3658395655
H 0.9543869151 2.3815696247 7.5463880670
H 2.0891850160 1.2000518979 7.4914649028
C 0.2089786812 -5.8928410998 1.7719210344
O -0.9555285894 -5.5372707545 1.7502082720
C 0.6391408710 -7.1183446520 2.6100613353
N 1.9432769335 -7.6418123262 2.2660143580
H 0.6279876050 -6.7786145966 3.6535537567
H -0.1783652604 -7.8448530712 2.5138336559
H 2.5276816051 -7.8383353319 3.0716123645
H 1.9031052263 -8.4697910328 1.6795429529
O -2.2850681528 -0.4014403896 -0.1734038431
C -2.9787355483 -0.7007662199 -1.3897764221
S -4.3239417857 0.5274654436 -1.6913024007
C -5.2784401327 0.1392544791 -0.1459419299
C -4.3506213289 0.2086037052 1.0766473759
C -3.1056564229 -0.6725256799 1.0128033852
H -6.0479943645 0.9151802378 -0.0974984413
H -3.4640686282 -1.6805912653 -1.2839670873
H -2.4411570246 -0.4590366736 1.8484237675
H -3.3642337668 -1.7333328795 1.0078418314
H -4.9112900565 -0.0882302407 1.9726037230
H -4.0523800664 1.2537177128 1.2172330006
N -0.7492964358 -0.6241072203 -2.2686645942
C -1.9983867680 -0.7571583606 -2.5443297741
C -2.5839739235 -1.0461319262 -3.9036753255
C -1.5863113229 -0.9340980411 -5.0630442658
C -0.2154322894 -1.4622515078 -4.6035118226
C 0.2512040730 -0.7124376306 -3.3561497093
H -1.4646200658 0.1047606331 -5.3882576388
H -0.2946048453 -2.5354087913 -4.3858382180
H 0.5303517959 -1.3380738630 -5.3941470523
H -2.9944925592 -2.0673805322 -3.8847392993
H -3.4493961721 -0.3950318662 -4.0678423709
H 0.5439120392 0.3154650870 -3.6070390070
H 1.1370261036 -1.1959826061 -2.9352690297
C -2.0800535433 -1.7652237519 -6.2604184065
O -2.7342568723 -2.7699433232 -6.0897072437
C -1.7349292645 -1.2909090611 -7.6924072906
N -0.6066847640 -0.3864035353 -7.7688155116
H -1.6049248937 -2.1977050031 -8.2936637363
H -2.6516022831 -0.8058468616 -8.0555761191
H 0.2068447817 -0.8006033404 -8.2124579696
H -0.8180456501 0.4928824709 -8.2288582141
C -5.9809048366 -1.2091432507 -0.3560617822
O -5.3784477304 -2.2599303070 -0.2096083818
C -7.4467196944 -1.1961914866 -0.8179101230
N -8.1560504948 0.0191995472 -0.4567785018
H -7.4113810701 -1.2882743866 -1.9118225399
H -7.8937422515 -2.1275402123 -0.4446946300
H -8.8094484810 0.3128260389 -1.1764523605
H -8.6775530804 -0.0839346813 0.4097781969
