142
# extracted from Terachem optimization
Fe 0.0761806203 -0.1493532763 -0.3024057157
N 0.4439689537 2.0532379888 0.0195440695
C 1.7200263936 2.2880358280 0.1338871185
C 2.0001808923 3.7492407233 0.2956132693
C 0.6103835452 4.3292789705 0.2508790451
C -0.2399008735 3.2842630869 0.0879047698
H -1.3191511264 3.2995201039 0.0388981473
H 2.6573097898 4.1351783364 -0.4971681824
H 2.5205822485 3.9647256493 1.2396133752
N 2.2509047658 -0.0294219491 -0.1076231489
C 2.6808035127 1.1711978134 0.1143141238
O 3.9295155908 1.5609624075 0.3539530397
C 4.9976180557 0.5387600457 0.4648913849
C 4.6426370408 -0.6223643108 -0.4548760391
C 3.2298489492 -1.1232691768 -0.1442591417
H 4.9626927003 0.2150123501 1.5109541393
H 4.7072013841 -0.2930864055 -1.4995471301
H 5.3609941398 -1.4355890219 -0.3256607358
H 3.2065569050 -1.6420182521 0.8237752636
H 2.8958282219 -1.8477311321 -0.8933837854
C 6.2951898609 1.2963105935 0.1891549350
C 7.6405137554 0.6747528547 0.6730732827
O 8.6163794823 1.7181200927 0.5871064010
C 7.5983425683 0.3141968912 2.1619091020
C 8.1054409630 -0.5220788337 -0.1689004400
H 6.3615212051 1.5113369818 -0.8865982537
H 6.2166417543 2.2609127244 0.7014140296
H 8.8447961614 1.8548067095 -0.3470235560
H 6.9222625505 -0.5241353919 2.3638308802
H 8.6003632585 0.0253534563 2.4903858956
H 7.2859950124 1.1766673099 2.7604665303
H 7.4747051277 -1.4069152287 -0.0305909678
H 8.1130874896 -0.2767832630 -1.2390526343
H 9.1240355324 -0.7933602176 0.1243614811
C 0.2681941597 5.7745300981 0.4273678346
C -0.3670224499 6.1037555668 1.8191595995
O -1.5519603619 5.3080932715 1.9883206791
C 0.5623317924 5.7178907622 2.9723365757
C -0.7158345268 7.5949159868 1.8759423305
H 1.1600582041 6.3954808305 0.2866278111
H -0.4529471077 6.0786102991 -0.3415609635
H -2.2984213020 5.8020650272 1.6125618534
H 1.5337468975 6.2166184563 2.8854573616
H 0.1104020936 6.0066978135 3.9254773370
H 0.7205484941 4.6343262302 2.9959391134
H 0.1773635875 8.2213640494 1.7846117750
H -1.3989397515 7.8736510161 1.0626850483
H -1.2007430618 7.8286657755 2.8290167528
N -0.1940270740 -2.3344524134 -0.0718271505
C -0.4412396225 -2.6725302268 1.1624512446
C -0.6479892468 -4.1471717484 1.2969944715
C -0.4742792452 -4.6115708355 -0.1263356280
C -0.2122857790 -3.5025351411 -0.8640647465
H -0.0085773573 -3.4350431746 -1.9219977441
H -1.6351030368 -4.3907692099 1.7158815011
H 0.0815595133 -4.6021056947 1.9830188896
N -0.3181900138 -0.4025463752 1.8778434217
C -0.4949384607 -1.6404924634 2.2093451227
O -0.7387008680 -2.1392698621 3.4199509860
C -0.7201936956 -1.2206866660 4.5814358416
C -1.2530122863 0.1301206448 4.1195878937
C -0.4547734068 0.6290170735 2.9139216900
H 0.3379698708 -1.1382944033 4.8551410471
H -2.3136925723 0.0302722381 3.8563474153
H -1.1914646111 0.8568931328 4.9329852475
H 0.5510178583 0.9499284842 3.2177615954
H -0.9370893106 1.5016159888 2.4636408391
C -1.5085645989 -1.9349379696 5.6796907967
C -1.1741249950 -1.6007423633 7.1639362112
O -1.9772166566 -2.4783557161 7.9598255766
C 0.2689758960 -1.9723210858 7.5167118085
C -1.4741681552 -0.1445704595 7.5458365732
H -2.5816031104 -1.7671978521 5.5120700594
H -1.3365193586 -3.0100572326 5.5628620382
H -2.8944387802 -2.1593885493 7.9437369147
H 0.9956049439 -1.3585444490 6.9730045236
H 0.4325160435 -1.8198701740 8.5872073187
H 0.4589955484 -3.0273551877 7.2945161991
H -0.7815601349 0.5627415845 7.0756041071
H -2.4960018854 0.1398006474 7.2619962979
H -1.3781028608 -0.0294742033 8.6297408234
C -0.5762282564 -6.0415367368 -0.5673415639
C 0.6641031446 -6.5841733556 -1.3429958476
O 0.8665550725 -5.7860294275 -2.5232130802
C 1.9486020664 -6.4476835781 -0.5227168561
C 0.4186796851 -8.0461313058 -1.7325912919
H -0.7601875234 -6.6818295132 0.3027666230
H -1.4515585908 -6.1562672423 -1.2219495063
H 0.2846782802 -6.1358158914 -3.2177243296
H 1.8701476120 -6.9897559467 0.4258122641
H 2.7923157707 -6.8567129014 -1.0855359503
H 2.1646679369 -5.3952589501 -0.3102114945
H 0.3041291302 -8.6840511811 -0.8502934014
H -0.4938739748 -8.1477644079 -2.3349345835
H 1.2621874844 -8.4230952891 -2.3193133064
N -2.1069187334 0.1708544910 -0.6200556139
C -2.3846696352 0.3481016642 -1.8795012802
C -3.8417556551 0.6183863375 -2.0897007193
C -4.3667815597 0.5595044653 -0.6759859447
C -3.3006602257 0.2902334802 0.1206678728
H -3.2809436822 0.1822888216 1.1940414123
H -4.3094993284 -0.1212581703 -2.7554767610
H -4.0129470553 1.5935862141 -2.5679603196
N -0.0935212016 0.0584539454 -2.4726993247
C -1.3052962977 0.2880519675 -2.8728937110
O -1.7296180026 0.4882975668 -4.1174928234
C -0.7405637945 0.5370969872 -5.2174980640
C 0.4070861726 -0.4007578101 -4.8637720105
C 0.9667606060 -0.0513748880 -3.4830118264
H -0.3914912532 1.5758513669 -5.2328450680
H 0.0421858461 -1.4356047891 -4.8718957221
H 1.1926749497 -0.3283773800 -5.6201303473
H 1.5177071525 0.8983428589 -3.5166358974
H 1.6741587275 -0.8150056648 -3.1449131543
C -1.5272382140 0.2123618138 -6.4884634840
C -1.0408913407 0.8335670546 -7.8312832445
O -1.9878237295 0.4269099028 -8.8235256142
C -1.1349675626 2.3624132596 -7.8126933281
C 0.3655658085 0.3751369543 -8.2402347607
H -1.5850499983 -0.8788793627 -6.6038760865
H -2.5527004902 0.5666789518 -6.3412875567
H -1.8391864986 -0.5105123153 -9.0295663261
H -0.4413397992 2.8090940800 -7.0917681035
H -0.8905771504 2.7535698044 -8.8041598451
H -2.1536045729 2.6793621460 -7.5675916897
H 1.1429568280 0.7692606049 -7.5750280401
H 0.4437574069 -0.7203161204 -8.2420719837
H 0.5850704282 0.7311935743 -9.2513657716
C -5.8116698728 0.7500355971 -0.3153052396
C -6.0921679002 1.4714767293 1.0349020381
O -5.4538925905 0.7535155300 2.1091853614
C -5.4881309132 2.8779220125 1.0581351090
C -7.6048217734 1.5285622867 1.2779128689
H -6.3180498351 1.2934102175 -1.1228109052
H -6.2963487004 -0.2382606268 -0.2816962023
H -6.0187339410 -0.0057870927 2.3284125916
H -5.9054803112 3.4925451954 0.2534424886
H -5.7094547164 3.3612995906 2.0139776174
H -4.4005906052 2.8392493904 0.9412862561
H -8.1163123792 2.1074236536 0.5019807616
H -8.0427610507 0.5216643495 1.2817600475
H -7.8095006589 1.9966563580 2.2455536733
