166
# extracted from Terachem optimization
Fe 0.0452750404 -0.3076865737 -0.0648237093
O 0.2653199606 1.7855739386 -0.1354632606
C 1.6550360766 2.0911553075 -0.5785057154
O 1.9168638431 3.4238389293 -0.6390392028
C 1.7714640250 4.1670731373 0.6181937076
C 0.4179377040 3.8087162607 1.1681420932
C -0.2518227362 2.7314693871 0.7630128039
H 2.5788094560 3.8526400629 1.2925547053
H -1.2685918709 2.4962450674 1.0389295279
H -0.0651959656 4.4882698758 1.8621099480
H 1.6932884815 1.7155662708 -1.6015523432
O 2.0732040246 -0.1935257193 0.0266362078
C 2.5648632077 1.2526014955 0.3273196263
N 3.9134442932 1.4361870544 0.0871784296
C 4.8326681363 0.5319141297 0.8300143460
C 4.2149105348 -0.8431158028 0.9298383888
C 2.9728316148 -1.1368299846 0.5427946937
H 4.9526060562 0.9424868229 1.8425741801
H 4.1742834321 1.5393336435 -0.8897025579
H 2.5411502692 -2.1292560289 0.5579350638
H 4.8232573878 -1.6491615425 1.3285531280
H 2.3373540289 1.3449388785 1.3915638297
C 6.1987357638 0.5329862240 0.1637527310
C 7.2521771444 1.2617442943 0.7233705241
C 8.4975379260 1.3051962528 0.0953192561
C 8.7100165843 0.6299814452 -1.1112283618
C 10.0740995691 0.6114525235 -1.7999413069
N 10.8881811809 1.7343505936 -1.3649065917
O 10.7726669222 -0.5887557435 -1.5245172526
C 7.6541101036 -0.1033108197 -1.6682230509
C 6.4133877162 -0.1565442106 -1.0390280390
H 7.1028174618 1.7997490529 1.6567909844
H 9.3149287903 1.8663783200 0.5366094189
H 9.9091796933 0.5666083808 -2.8879464736
H 11.7832748917 1.6971450094 -1.8497245951
H 10.4505481281 2.6246286320 -1.5982805891
H 11.0528085301 -0.5331371335 -0.5932972249
H 7.8136321218 -0.6474392148 -2.5957019138
H 5.6122326886 -0.7479897299 -1.4782489314
C 1.9330445630 5.6371245562 0.3210424011
C 0.9958041507 6.3208933517 -0.4644818504
C 1.1446192713 7.6837672717 -0.7091334262
C 2.2272124405 8.3912792820 -0.1684943178
C 2.3526540609 9.9054962297 -0.3313970096
N 1.7228172503 10.3444960512 -1.5668184066
O 1.7397192203 10.5806894700 0.7522538792
C 3.1643098585 7.7024589266 0.6082639364
C 3.0227739764 6.3371297260 0.8491970054
H 0.1484764378 5.7868051139 -0.8876492922
H 0.4225412769 8.2167722991 -1.3197979416
H 3.4146907901 10.1788696761 -0.2405358366
H 1.8395097954 11.3529597442 -1.6530942527
H 2.1623869770 9.9149963224 -2.3799518571
H 0.7793047710 10.4792915332 0.6269799216
H 4.0067600786 8.2402113409 1.0353070843
H 3.7622445722 5.8171502988 1.4540979387
O -0.3572564866 -2.3131255601 0.0146030429
C -1.0307998311 -2.6843491798 1.2907973200
O -1.1945274425 -4.0277556402 1.4256056203
C 0.0180457629 -4.8517144824 1.3662829607
C 0.7810473190 -4.4271110763 0.1390004940
C 0.5465066773 -3.2675023839 -0.4708212008
H 0.6008125441 -4.6732867898 2.2798567114
H 0.9835079138 -2.9418396801 -1.4065012546
H 1.4933565027 -5.1170738432 -0.3005213106
H -2.0261520945 -2.2460169277 1.2061256410
O -0.2674400075 -0.4938468461 1.9465914543
C -0.2375728627 -1.9776564762 2.3935075880
N -0.7711229634 -2.1821675612 3.6549359183
C -0.1286018775 -1.4230590538 4.7606155381
C 0.2839992044 -0.0608652814 4.2582672664
C 0.1869100329 0.3309374518 2.9867092422
H 0.7672240255 -1.9797995418 5.0697936837
H -1.7857412708 -2.1457912067 3.7042317841
H 0.4072190024 1.3336120292 2.6451966513
H 0.6599510502 0.6582349099 4.9798182816
H 0.8310698874 -2.2072220061 2.3786424113
C -1.0715512390 -1.3572753103 5.9520722838
C -0.9060404489 -2.2333746501 7.0298119903
C -1.7886416144 -2.2024144558 8.1094664631
C -2.8574578641 -1.2988881073 8.1309874396
C -3.7878279740 -1.1901248230 9.3382024291
N -3.8608555187 -2.4587728660 10.0440250264
O -3.3381963282 -0.1963737744 10.2410171615
C -3.0231726467 -0.4252213571 7.0495524931
C -2.1411253022 -0.4508503994 5.9720027869
H -0.0828978921 -2.9441566839 7.0282879705
H -1.6586516404 -2.8811469652 8.9463874996
H -4.7599151198 -0.8041609323 8.9937925635
H -4.4974353890 -2.3600855804 10.8331491751
H -4.2233736852 -3.1995607340 9.4456324762
H -2.5405054284 -0.5571726732 10.6678851261
H -3.8415204611 0.2903357692 7.0605099444
H -2.2759078279 0.2479799102 5.1489915357
C -0.4035422312 -6.3004529433 1.3367794985
C -1.1643840888 -6.8063422534 0.2744116035
C -1.5193661741 -8.1523022068 0.2439467827
C -1.1141457484 -9.0206506767 1.2677188055
C -1.3984059743 -10.5198286089 1.1995399348
N -2.6328529123 -10.7775578998 0.4751601975
O -0.3420289489 -11.2045929520 0.5502146619
C -0.3611480383 -8.5086794992 2.3289466878
C -0.0110771126 -7.1600815108 2.3676822249
H -1.4833990150 -6.1444969924 -0.5268673593
H -2.1135475439 -8.5471690972 -0.5741968882
H -1.3783363710 -10.9246749797 2.2227449879
H -2.8103838888 -11.7807769452 0.4742401941
H -3.4277881360 -10.3251951811 0.9246522508
H -0.4181130264 -10.9855747906 -0.3956056944
H -0.0415118921 -9.1720117661 3.1283007354
H 0.5709123127 -6.7779453524 3.2033137371
O -2.0322506226 -0.2747834382 -0.2905959007
C -2.3587938050 -0.6683345789 -1.6901754028
O -3.6820162758 -0.5583660104 -1.9735040528
C -4.2692302338 0.7780371559 -1.8104379265
C -3.8968639055 1.2403882875 -0.4250805079
C -2.8876429617 0.6933726541 0.2500188856
H -3.8473873255 1.4322802929 -2.5844808036
H -2.6521562416 0.8791900422 1.2901910628
H -4.5203678876 1.9769930728 0.0699256856
H -2.1025108545 -1.7282494003 -1.7262814841
O -0.0254560825 -0.4005998475 -2.0704585351
C -1.3887320448 0.1182132664 -2.5857220950
N -1.5913559388 -0.1020541528 -3.9389241124
C -0.5441182921 0.4405162054 -4.8460249982
C 0.8219499259 0.1865099020 -4.2479736773
C 1.0104896003 -0.2197253172 -2.9914835011
H -0.7091430218 1.5242433431 -4.9229756819
H -1.8406013761 -1.0575952481 -4.1825953125
H 1.9669504161 -0.4653701580 -2.5466222492
H 1.6957286783 0.3103593071 -4.8801815618
H -1.3377639803 1.1846064203 -2.3499354030
C -0.7034761112 -0.1561669302 -6.2342554448
C -1.3272634128 0.5786775999 -7.2476782377
C -1.4949810301 0.0320025099 -8.5199880271
C -1.0491973663 -1.2642302175 -8.8022105136
C -1.1382983285 -1.8574584543 -10.2077600769
N -2.2375753012 -1.2612330298 -10.9486567114
O 0.0620942246 -1.6410969479 -10.9271211725
C -0.4318658304 -2.0010920313 -7.7844127102
C -0.2567817156 -1.4554165155 -6.5150753762
H -1.6811853450 1.5869884099 -7.0446403687
H -1.9741083288 0.6070135847 -9.3062177501
H -1.1913254655 -2.9535817335 -10.1186871563
H -2.2842565821 -1.6899228913 -11.8715761193
H -3.1310743008 -1.4257584634 -10.4872280100
H 0.0776825847 -0.6931017722 -11.1501183776
H -0.0712836242 -3.0048099282 -7.9951079102
H 0.2451156207 -2.0391064171 -5.7456955039
C -5.7566705833 0.6612471832 -2.0301656230
C -6.5609719812 -0.0636032156 -1.1410037393
C -7.9347221083 -0.1540572765 -1.3495741511
C -8.5328316231 0.4825589432 -2.4463317767
C -10.0476197885 0.4782473668 -2.6413233699
N -10.6329778384 -0.7364319825 -2.0955274008
O -10.6463239544 1.5923646985 -2.0039648595
C -7.7248790771 1.2008870469 -3.3332855514
C -6.3485747074 1.2878423257 -3.1316261552
H -6.1107206146 -0.5616242850 -0.2857770078
H -8.5594700237 -0.7209666880 -0.6663875511
H -10.2604718556 0.6452925869 -3.7080722506
H -11.6371749060 -0.7223918996 -2.2668413062
H -10.2554253108 -1.5668660964 -2.5499476918
H -10.6035996125 1.4130387410 -1.0477104212
H -8.1772459546 1.7007566915 -4.1858282454
H -5.7350625254 1.8474501790 -3.8340855799
