121
# extracted from Terachem optimization
Fe 0.1750167450 -0.1309598436 -0.2576328397
O 0.3401092323 2.0067077617 -0.3003898834
C 1.7603654799 2.3888007102 -0.8657116909
N 2.1295559664 3.6915457694 -0.6133919485
C 1.9194881393 4.1758658245 0.7675028798
C 0.4522971219 3.9884927869 1.0722476845
C -0.2357485943 2.9877712076 0.5134914199
H 2.5602700215 3.5930210446 1.4419782640
H 1.7663910841 4.3734121241 -1.2759249202
H -1.3077570219 2.8610364260 0.5869683522
H -0.0851580624 4.7137441456 1.6706099826
H 1.6293869412 2.2317213639 -1.9378838044
N 2.1996993507 0.1415695256 -0.0456938862
C 2.7005176567 1.3206990219 -0.3063606918
C 4.1033380250 1.6400352303 -0.2083292156
C 5.0011279558 0.6261091663 -0.1338965311
C 4.5223010122 -0.7962675120 -0.1096206296
C 3.1323312695 -0.8689306639 0.5160925911
H 4.5462828264 -1.1885989763 -1.1375904400
H 5.2074641932 -1.4209092066 0.4684964038
H 4.4135795052 2.6734971473 -0.3062881198
H 3.2121841296 -0.6670121994 1.5932526951
H 2.6885969283 -1.8587884802 0.3916319791
C 6.4999643278 0.8886568485 -0.1499113434
O 7.0263309169 -0.0492772381 -1.0585164783
O 6.7164038478 2.2185359390 -0.5071740394
C 7.0658630571 0.6070956762 1.2674654358
O 6.4411843857 0.1211238934 2.1798678232
O 8.3597493742 0.9667535893 1.3026269258
H 7.9977066707 0.0226517172 -1.0676293558
H 7.6266499778 2.4719164151 -0.2711151678
H 8.7310248371 0.7740324014 2.1875939356
C 2.4316510856 5.6367909739 0.8004063960
O 3.7402066057 5.6385842154 0.3393445325
O 1.5525060127 6.3456843014 -0.0563727973
C 2.4353152994 6.3203523120 2.1953598484
O 3.3610389144 7.0234978636 2.5284911829
O 1.3313601962 6.1133587788 2.9235223298
H 4.2307670436 6.2977964647 0.8750722726
H 1.9871824889 7.1758887157 -0.3219921929
H 1.4028692610 6.6554290143 3.7364594918
O -0.3472445263 -2.2524100950 -0.1178019565
C -1.1090303569 -2.5755991811 1.1834963734
N -1.0334543135 -3.9032421720 1.5729298683
C 0.3175899374 -4.4946013511 1.6110195134
C 0.9664451306 -4.2501704549 0.2681529626
C 0.5933106351 -3.2203256635 -0.4955352652
H 0.8829195893 -4.0248944589 2.4265845310
H -1.6720496378 -4.5233875057 1.0802334574
H 0.9442877309 -3.0447736503 -1.5058874703
H 1.6891366000 -4.9524464312 -0.1288692090
H -2.1388033708 -2.3129002737 0.9299943782
N -0.0938618380 -0.4518301952 1.7929343084
C -0.5982933456 -1.5766816628 2.2195791571
C -0.8084851910 -1.8995208900 3.6117829070
C -0.7787156853 -0.9011493721 4.5272288064
C -0.4356799450 0.4920149677 4.0943507596
C 0.4321019455 0.4630656963 2.8372066726
H -1.3773186839 1.0415387918 3.9449373948
H 0.1002035634 1.0115981551 4.8941415166
H -1.0937341017 -2.9113414955 3.8735995476
H 1.4389881980 0.1039475985 3.0925843234
H 0.5304888677 1.4647487181 2.4164851231
C -1.1842164560 -1.1523146673 5.9737981120
O -1.1003300237 -2.5222855105 6.2232292052
O -0.3123563600 -0.3742314822 6.7614754248
C -2.6363012014 -0.6446192359 6.1860846560
O -3.2684439371 0.0130090286 5.3952372929
O -3.0597811309 -1.0302913140 7.4026620692
H -1.6317904809 -2.7375953138 7.0104568932
H -0.5316060344 -0.5068316831 7.7010428237
H -3.9658592384 -0.6939217167 7.5566179873
C 0.1358060439 -5.9876772060 1.9862680692
O -0.6420279310 -6.0484633259 3.1320390253
O -0.5067660077 -6.5665407547 0.8615616056
C 1.4423209030 -6.7757484519 2.2735949262
O 1.4636884948 -7.6236651250 3.1355984481
O 2.4699072112 -6.4757442682 1.4688300798
H -0.3118220603 -6.8011681759 3.6663069038
H -0.8934184515 -7.4176872242 1.1352649682
H 3.2064920057 -7.0835079223 1.6877975376
O -1.9691656473 -0.0762940967 -0.4868005776
C -2.3921779785 -0.7299554034 -1.8340990934
N -3.6180685543 -0.2928405192 -2.3061296805
C -3.8678991539 1.1620901560 -2.2165100857
C -3.7410337906 1.5273284022 -0.7553991420
C -2.8601488473 0.8795807266 0.0109488069
H -3.1296383320 1.6821158478 -2.8403270447
H -4.4194582016 -0.7921361840 -1.9263830192
H -2.7764786625 0.9833987383 1.0873102763
H -4.4234475323 2.2307442057 -0.2946557568
H -2.4371657886 -1.7932170435 -1.5850526561
N -0.0176506035 -0.3757854387 -2.3072742490
C -1.2186947798 -0.5374869511 -2.7949370657
C -1.5042677846 -0.6910174876 -4.2030405990
C -0.4952769508 -1.0298009746 -5.0408742935
C 0.9010207978 -1.1625335222 -4.5074444893
C 1.0782692872 -0.2444350449 -3.3029852532
H 1.0868855659 -2.2205508203 -4.2686044944
H 1.6323930684 -0.8905586891 -5.2725821312
H -2.5354914131 -0.6448701165 -4.5320143311
H 1.0774599465 0.7974461887 -3.6552779425
H 2.0234550281 -0.4319454640 -2.7906977263
C -0.7465018778 -1.3574902274 -6.5047081525
O 0.0070109417 -2.5202447334 -6.7552832414
O -2.1190711604 -1.5088979307 -6.6985138199
C -0.1995856826 -0.1952903557 -7.3749992787
O 0.4302298743 0.7478216176 -6.9603151280
O -0.5195103858 -0.4241725368 -8.6601994948
H -0.0542181671 -2.7437539835 -7.7013346677
H -2.3178472258 -1.4550395067 -7.6503254555
H -0.1638003044 0.2954576094 -9.2202831968
C -5.2611659663 1.4051560357 -2.8509158622
O -5.2390034413 0.9036563400 -4.1438439289
O -6.1606895671 0.6999134090 -2.0130161441
C -5.7045226416 2.8925410408 -2.9444012636
O -6.1959371055 3.3244851653 -3.9617655264
O -5.5485232239 3.5936917018 -1.8153438256
H -5.7230520846 1.5443413512 -4.7075315313
H -6.9764937625 0.5316727308 -2.5176575346
H -5.9318489985 4.4834104236 -1.9602721471
