151
# extracted from Terachem optimization
Fe 0.6155972504 0.5256446999 0.1128604993
O 0.6549484774 2.7262435399 0.1442798214
C 1.9286009645 3.4063249944 0.2595812828
O 1.9115860658 3.9663932778 1.5518594336
C 0.5640231387 4.2871749052 1.7776714138
C -0.1910359749 3.5533925445 0.9440451271
H -1.2486038192 3.4792141392 0.7532172363
H 1.9442885384 4.2124455377 -0.4865718219
O 2.6101441412 1.0820443567 0.4699315496
C 3.0936359826 2.4408698602 0.0485893263
N 4.2348489852 2.8941750765 0.7248796238
C 5.3934007717 1.9717059243 0.6957939412
C 4.9155626799 0.6093056846 1.2429339744
C 3.6948709265 0.0954759319 0.4840717228
H 6.1202469852 2.3908420247 1.4011176491
H 4.0226253711 3.2106217615 1.6671257244
H 3.3127769415 2.3416570801 -1.0196075382
H 3.2644392398 -0.7851521186 0.9626187060
H 3.9453121653 -0.1434632161 -0.5564492995
H 5.6959709386 -0.1563735539 1.2005936177
H 4.6551526440 0.7343109877 2.3005681490
C 6.0462195571 1.9404312427 -0.6890289373
C 5.9049276644 3.0313111017 -1.5616818376
C 6.5103265841 3.0289736494 -2.8146429109
C 7.3120765691 1.9515134903 -3.2108912613
C 7.8946092548 1.9813396836 -4.5978265308
O 7.2675727527 2.5101891842 -5.5121892309
N 9.0944973420 1.3662607201 -4.7812213651
C 7.4835195223 0.8722129226 -2.3376894739
C 6.8513041325 0.8653906187 -1.0933642025
H 5.3249360264 3.8931245279 -1.2480089411
H 6.3776451502 3.8630923468 -3.4958965818
H 9.7235415703 1.2212505528 -4.0030840830
H 9.5201740395 1.4632915977 -5.6959894375
H 8.0895301438 0.0206744608 -2.6334898475
H 7.0137275801 0.0140972558 -0.4392117409
C 0.2726866984 5.2968665330 2.7856172930
C 1.3196409864 6.0680376720 3.3214275396
C 1.0458698365 7.0800351131 4.2327692608
C -0.2699191092 7.3378840316 4.6367783223
C -0.4807494515 8.5056445188 5.5698173496
O 0.3559639975 9.3996522877 5.6180758051
N -1.6322879135 8.5318787126 6.2960295554
C -1.3162584500 6.5683760576 4.1058252158
C -1.0496150647 5.5534461196 3.1935309911
H 2.3403976090 5.8926053577 3.0013642235
H 1.8413497795 7.7022618300 4.6281561963
H -2.1635045611 7.6934664654 6.4809066916
H -1.7330089063 9.2933351013 6.9568958245
H -2.3462938845 6.7835228422 4.3734982858
H -1.8734693616 4.9744552254 2.7845803743
O 0.6354225313 -1.7670119930 0.1925143272
C 0.1175016767 -2.3517444639 1.4202318158
O 1.1490074369 -3.2022856178 1.8709255936
C 1.8067979030 -3.6261238493 0.7127181205
C 1.5255006762 -2.7607973983 -0.2780187714
H 1.8186264374 -2.7076832496 -1.3142685045
H -0.7599252248 -2.9583260745 1.1561527117
O 0.5872559715 -0.0823477110 2.1699477956
C -0.2629952395 -1.2814749972 2.4486577773
N -0.1769237132 -1.8039402019 3.7511121116
C -0.3700000511 -0.8147130909 4.8359618099
C 0.6812860512 0.2989342281 4.6240625102
C 0.5361326023 0.9215069117 3.2396161355
H -0.1463406613 -1.3440667835 5.7687742976
H 0.6704191917 -2.3471766484 3.8926207900
H -1.2817724690 -0.9441402424 2.2633094634
H 1.3540140396 1.6056369249 3.0110870945
H -0.4142695830 1.4595367763 3.1546300287
H 0.6026020670 1.0979391379 5.3673891000
H 1.6806892242 -0.1378441384 4.7350201665
C -1.8126950168 -0.3031057368 4.8919053824
C -2.8559193634 -0.9954096042 4.2561356713
C -4.1480437312 -0.4751827385 4.2250977510
C -4.4465910520 0.7224315204 4.8861422471
C -5.8165798460 1.3209042560 4.7121439754
O -6.3387785144 1.3603351702 3.5986033147
N -6.3920783370 1.8496101043 5.8239200005
C -3.4336504782 1.3699103512 5.6021133532
C -2.1299332020 0.8711747290 5.5896443418
H -2.6516572745 -1.9513030067 3.7848711741
H -4.9369477710 -0.9997283996 3.6946285209
H -6.0804823725 1.5849026122 6.7486115262
H -7.3448274893 2.1835023197 5.7406144932
H -3.6492127828 2.2897629573 6.1382222724
H -1.3641897063 1.4127029165 6.1369474230
C 2.6012541949 -4.8408965968 0.7614589758
C 2.8273148871 -5.4967461179 1.9865490349
C 3.5439326275 -6.6846147334 2.0152508340
C 4.0612589019 -7.2290038598 0.8260736094
C 4.7630148097 -8.5537494486 0.9197415477
O 4.3875320059 -9.3497259668 1.7851556172
N 5.7384366321 -8.8338520212 0.0334466098
C 3.8194781610 -6.5888560851 -0.3997795298
C 3.1061636851 -5.3990670977 -0.4328324040
H 2.4266613879 -5.0858693287 2.9064098891
H 3.7047495981 -7.2125560955 2.9487289261
H 6.1426016587 -8.1251253479 -0.5614229176
H 6.2073763818 -9.7295812700 0.0984813727
H 4.1485053911 -7.0168284671 -1.3413632663
H 2.9201025833 -4.9513551915 -1.4042252349
O -1.5927614237 -0.1008772921 -0.0363408614
C -2.0097770784 -0.5195847028 -1.3659473019
O -2.9519249666 0.4432954515 -1.7753826628
C -3.5514368630 0.8886803745 -0.5934447605
C -2.7391646600 0.5931760449 0.4360723240
H -2.8171919355 0.7426409859 1.5009679368
H -2.5002740259 -1.4985198317 -1.2702820373
O 0.1074499208 0.5151514149 -1.9121002720
C -0.8207397954 -0.6018712115 -2.3189013589
N -1.2478260917 -0.5725209190 -3.6534673410
C -0.1698989965 -0.4432474592 -4.6635716516
C 0.6104251013 0.8474799200 -4.3253756526
C 1.1549652138 0.7935259546 -2.9011415959
H -0.6773423351 -0.3086579380 -5.6250821463
H -1.9748773486 0.1220896917 -3.8057099616
H -0.2514579410 -1.5099245619 -2.1265796674
H 1.5719595761 1.7577049258 -2.6043359681
H 1.9257427692 0.0188060388 -2.8116545753
H 1.4527330501 1.0202658882 -5.0014796618
H -0.0624932342 1.7058519631 -4.4325346137
C 0.7073383728 -1.6957280697 -4.7382627401
C 0.2838455371 -2.9192855905 -4.1946643799
C 1.1254823500 -4.0297276851 -4.1875231252
C 2.3935137817 -3.9633380515 -4.7774340946
C 3.3142104539 -5.1455661599 -4.6346572270
O 3.3934440380 -5.7466048593 -3.5630591674
N 4.0656670456 -5.4597927851 -5.7204808835
C 2.7890836459 -2.7737954253 -5.3994544546
C 1.9609773212 -1.6506300937 -5.3655923920
H -0.7176558413 -3.0027142534 -3.7849197849
H 0.8020743505 -4.9609220030 -3.7324442413
H 3.8243898448 -5.1232725677 -6.6425458909
H 4.6411599004 -6.2914863766 -5.6692835937
H 3.7626813930 -2.7044123195 -5.8762025629
H 2.3086577089 -0.7394757032 -5.8431441429
C -4.8568958448 1.5240678583 -0.6702220253
C -5.3885303655 1.9093053794 -1.9147447880
C -6.6548097291 2.4734750055 -1.9835139348
C -7.4057802663 2.6735688543 -0.8126390093
C -8.7943920739 3.2265065318 -0.9692449417
O -9.4048668827 3.0005117926 -2.0173506438
N -9.3327159996 3.9166876011 0.0573316816
C -6.8870578133 2.2705702729 0.4275722719
C -5.6189339519 1.7099621970 0.5019750830
H -4.8172406346 1.7539892094 -2.8231123562
H -7.0855134389 2.7565639154 -2.9376697438
H -8.7735768238 4.2515881075 0.8282247000
H -10.2655727252 4.2952734903 -0.0558576716
H -7.4681995952 2.3491666121 1.3410631441
H -5.2679776880 1.3805454173 1.4751942686
