151
# extracted from Terachem optimization
Fe -0.4031420094 -0.3984854604 -0.3392540207
N -0.2130343278 1.6236458170 -0.4505562856
C 1.0071020498 2.0186322481 -0.5446260015
O 1.2812191267 3.3096658321 -0.5527311488
C -0.0187228888 4.0086301863 -0.3504236937
C -1.0445751702 2.8337795311 -0.3361155341
H -1.6085258101 2.7917634514 0.5939917991
H -1.7562174948 2.8795950433 -1.1648392993
H -0.1296627377 4.6502535856 -1.2248004292
N 1.6196963370 -0.2443178026 -0.5497969271
C 2.0359596313 0.9724503064 -0.6108732793
O 3.3317278972 1.2171545736 -0.6981764146
C 3.9942365468 -0.1255953140 -0.7759132768
C 2.8160833555 -1.1051435730 -0.5190395960
H 2.8685745844 -1.6000501913 0.4543058937
H 2.7505322720 -1.8897340688 -1.2766029547
H 4.3590336520 -0.1852836130 -1.8019472337
C 5.2070323478 -0.1125503440 0.1806441736
O 6.0693730034 0.9325374967 -0.2705594327
C 4.7922305669 0.1637159646 1.6336319754
C 6.0841625973 -1.3988821865 0.0507609347
C 5.5240211440 -2.6621176958 0.7255543881
C 6.4986090529 -1.6977491570 -1.4005096272
H 5.6146785723 1.7831169389 -0.1551934767
H 4.1123516603 -0.5921617892 2.0388878599
H 5.6863043720 0.1875276206 2.2630945869
H 4.3007479463 1.1402989028 1.7135025280
H 6.9952498817 -1.1166645540 0.5935338739
H 4.6229849956 -3.0430852711 0.2281083271
H 6.2766064008 -3.4558715292 0.6734144247
H 5.2911843735 -2.5098079274 1.7838639395
H 6.8761311651 -0.8029801403 -1.9013347245
H 7.2944158622 -2.4492664553 -1.4099617114
H 5.6679387117 -2.1090734307 -1.9908647361
C 0.0664375735 4.8729824966 0.9221533813
O 0.0324737062 3.9249914912 2.0080594085
C 1.4074042737 5.6271317562 0.9596413986
C -1.1296080406 5.8781421960 1.0459283588
C -1.1934984690 6.9170945026 -0.0877727969
C -2.5079934024 5.2264199193 1.2485605439
H 0.2039968787 4.4145503813 2.8291237257
H 1.5835902886 6.2134193710 0.0536767213
H 1.4202082017 6.3192226336 1.8092399761
H 2.2319433443 4.9206427817 1.0724440880
H -0.9047216372 6.4271264924 1.9727459738
H -1.4664162598 6.4609428284 -1.0479403352
H -1.9639059148 7.6615972693 0.1372321886
H -0.2531339073 7.4583210580 -0.2228069104
H -2.4900644535 4.4741703929 2.0424408332
H -3.2339204292 5.9947774833 1.5343728242
H -2.8860548041 4.7563141546 0.3321970818
N -0.3144660822 -2.4129535808 -0.0964693762
C -0.1838048702 -2.7753794374 1.1302381774
O -0.0545507746 -4.0552504600 1.4278911680
C -0.0423205644 -4.7813957480 0.1267840863
C -0.2906808559 -3.6395885087 -0.9077489076
H 0.5129722189 -3.5813339706 -1.6405708013
H -1.2438473938 -3.7534456403 -1.4336215729
H -0.8782568824 -5.4780572548 0.1890090813
N -0.2664525176 -0.4971428130 1.6847069678
C -0.1851476260 -1.7026056146 2.1326395204
O -0.1134516516 -1.9143457957 3.4339542886
C -0.2814388638 -0.5676522311 4.0710751771
C -0.1823189766 0.3969962231 2.8577142030
H 0.7553449999 0.9581722836 2.8135104488
H -0.9969421353 1.1241617239 2.8447848655
H -1.2930765527 -0.5932110138 4.4793926104
C 0.7165036461 -0.4763095264 5.2485635015
O 0.3997480566 -1.5640608268 6.1165162101
C 2.1745232812 -0.6004511968 4.7829995605
C 0.4832689390 0.7937602465 6.1253428873
C 0.8896292888 2.1276628331 5.4766075476
C -0.9468626540 0.8824776604 6.6856184255
H 0.6484761410 -2.3936717358 5.6775583504
H 2.4776415492 0.1959428189 4.0963635464
H 2.8343107363 -0.5650816374 5.6545317095
H 2.3366245706 -1.5595964225 4.2771035918
H 1.1523713764 0.6244434455 6.9782658937
H 0.2277514900 2.4020830528 4.6448821250
H 0.8101722329 2.9262153461 6.2215734665
H 1.9221319080 2.1289483538 5.1127128578
H -1.2589435830 -0.0629261080 7.1346889682
H -0.9915506874 1.6561096229 7.4587709807
H -1.6774470927 1.1640439831 5.9145626619
C 1.2769314744 -5.5627320629 -0.0206429620
O 2.2580004274 -4.5646437085 -0.3751961181
C 1.6757168529 -6.2047451564 1.3182869750
C 1.1933658779 -6.6442653632 -1.1504096413
C 0.2235084382 -7.8006427687 -0.8483356690
C 0.9248591515 -6.0835451046 -2.5576642115
H 3.1242920936 -5.0033510851 -0.3951036619
H 0.8729997505 -6.8115509034 1.7462637919
H 2.5436908495 -6.8581695348 1.1736413529
H 1.9400821695 -5.4312412370 2.0421830566
H 2.2071711856 -7.0729552158 -1.1698506549
H -0.8214054877 -7.4666916255 -0.8152150784
H 0.2896031582 -8.5487490328 -1.6444282566
H 0.4478697487 -8.3087763767 0.0932782780
H 1.6041086236 -5.2631931333 -2.8085216364
H 1.0723617534 -6.8747048576 -3.2993696230
H -0.1095300866 -5.7352900127 -2.6727000297
N -2.4228932637 -0.2940628272 -0.4273792567
C -2.8908683742 -0.3465872505 -1.6245980648
O -4.1896619577 -0.2408358082 -1.8279337235
C -4.8028942359 -0.0090476726 -0.4901050374
C -3.5724101449 -0.0793728911 0.4674948785
H -3.4327768214 0.8516133862 1.0159918172
H -3.6465020387 -0.9048621966 1.1820001056
H -5.4901752949 -0.8437233782 -0.3487908876
N -0.6759975116 -0.5835074010 -2.3568658185
C -1.9125701040 -0.5109836533 -2.7072148787
O -2.2382708131 -0.5618642532 -3.9856922828
C -0.9553287238 -0.7828555425 -4.7252321236
C 0.1127895810 -0.6580172034 -3.6000778444
H 0.7268174944 0.2426090798 -3.6860705414
H 0.7843671504 -1.5205530500 -3.5756118837
H -1.0343703898 -1.8046885033 -5.0977104136
C -0.9296144639 0.1881567454 -5.9291096960
O -2.1118213407 -0.0795934101 -6.6835815224
C -0.9366814087 1.6593756198 -5.4866453098
C 0.2352679629 -0.1258780745 -6.9195630170
C 1.6482155198 0.1971814472 -6.4063937514
C 0.1788748930 -1.5614679760 -7.4699406129
H -2.8827812104 0.2063490115 -6.1669676647
H -0.0534383117 1.9443255962 -4.9071518141
H -0.9776761643 2.2962996908 -6.3745706431
H -1.8240924417 1.8752819362 -4.8792649629
H 0.0265671569 0.5493629533 -7.7589442657
H 1.9745076674 -0.4968269225 -5.6206854562
H 2.3619907558 0.0897336078 -7.2292776469
H 1.7453958588 1.2206919104 -6.0302412213
H -0.8266159893 -1.8199849879 -7.8088308397
H 0.8583757268 -1.6583016911 -8.3228550444
H 0.5005238925 -2.3025638895 -6.7252008180
C -5.5905310450 1.3134499838 -0.5221011720
O -4.5777870455 2.3403126498 -0.5327259612
C -6.4127479176 1.4047970751 -1.8199462078
C -6.5184676650 1.4927855601 0.7260996390
C -7.6506110076 0.4544699641 0.8270251428
C -5.7833858867 1.6057013679 2.0725389966
H -5.0308314652 3.1934591015 -0.6343185081
H -7.0440768363 0.5257561978 -1.9766329889
H -7.0694993115 2.2813818069 -1.7845641487
H -5.7475911705 1.5029318545 -2.6798660505
H -6.9959067763 2.4682834706 0.5466998991
H -7.2697295860 -0.5517662282 1.0438363250
H -8.3186722137 0.7227615123 1.6513728708
H -8.2607340251 0.3994432348 -0.0786262234
H -4.9607490560 2.3259221221 2.0307975326
H -6.4844167235 1.9464852721 2.8410492508
H -5.3927284646 0.6388052554 2.4140425143
