133
# extracted from Terachem optimization
Fe 0.0413763418 0.0437853447 0.0683163054
N 0.2125709883 2.0278399496 -0.0197737632
C 1.4996043841 2.4548921127 0.0772607526
C 1.8246734967 3.8097614191 0.0327690720
C 0.8158486431 4.7679244913 -0.1196078361
C -0.5006344262 4.3054574048 -0.2464716042
C -0.7605660697 2.9412101804 -0.1852827906
H 2.8565619117 4.1358177259 0.0836717371
H -1.7693445819 2.5559834112 -0.2662910169
H -1.3184465085 5.0012343591 -0.3970366999
N 2.0183846001 0.1697666017 0.1826290334
C 2.5011506165 1.3743361487 0.2003769993
C 3.9551513826 1.7186314401 0.3063421386
C 4.8978790605 0.5296837379 0.5518080583
C 4.3507292425 -0.6886954133 -0.1943045657
C 2.9263089609 -0.9962294687 0.2653375517
H 4.9403110954 0.3048829091 1.6243558611
H 4.3582528411 -0.4949148381 -1.2742863636
H 4.9613828543 -1.5781419773 -0.0192385962
H 4.2602255538 2.1892666952 -0.6444179580
H 4.0868750036 2.4845671640 1.0777425952
H 2.9219671793 -1.3426647838 1.3070539568
H 2.4824608093 -1.7940034848 -0.3352377862
C 6.3442576713 0.9571417065 0.1322017807
N 6.3401019887 1.3369204408 -1.2860702532
O 6.5778352309 2.1079989834 0.9227568978
C 7.3743900154 -0.1289635431 0.4971764408
C 8.0537641504 -0.1612585426 1.6419489504
Cl 7.6431470043 -1.3926450319 -0.7098261567
H 6.8911411292 2.1830844162 -1.4112472938
H 6.7486284560 0.6152764940 -1.8761808905
H 7.5232211359 2.3348016386 0.8700152972
H 8.7829213849 -0.9351641074 1.8541316986
H 7.8923374038 0.6003573260 2.3980833216
C 1.1390897419 6.2637970328 -0.3123762390
N 2.5684662916 6.4916600799 -0.1270294762
O 0.8131962402 6.5413682778 -1.6591432861
C 0.2769910743 7.1677897825 0.5797135707
C -0.3014515874 6.8077475304 1.7261547609
Cl 0.2453283040 8.8313938377 0.0512270869
H 2.7784018343 7.4371428279 -0.4519533746
H 2.8089876934 6.4810422237 0.8649811991
H 1.5902568015 6.3051586529 -2.1976685776
H -0.8122316572 7.5293182622 2.3537340532
H -0.2637780155 5.7824142491 2.0805735979
N -0.0622668799 -1.9399404374 0.2298436267
C 0.0026664991 -2.3734180572 1.5173336669
C -0.0521785810 -3.7296032674 1.8331861624
C -0.1852731239 -4.6821556280 0.8156163320
C -0.2839670074 -4.2126561815 -0.5002965436
C -0.2115887676 -2.8468097753 -0.7517014261
H -0.0253887981 -4.0632040155 2.8636887586
H -0.2718873815 -2.4542294076 -1.7592329585
H -0.4213831720 -4.9028791460 -1.3251290290
N 0.0803929841 -0.0893477233 2.0554567587
C 0.0964426778 -1.2983980361 2.5290577768
C 0.1704068208 -1.6517359548 3.9831741137
C 0.4006120275 -0.4680876970 4.9363578727
C -0.3397719389 0.7525912911 4.3865585308
C 0.1396996349 1.0708731970 2.9710584133
H 1.4721978937 -0.2418212527 4.9942350655
H -1.4198154821 0.5574489262 4.3790658160
H -0.1755418402 1.6381122534 5.0058716414
H -0.7875137299 -2.1215105107 4.2663840678
H 0.9362413114 -2.4209315793 4.1268187165
H 1.1794057239 1.4235566722 2.9858099062
H -0.4599870536 1.8661665693 2.5215863584
C -0.0381257789 -0.9046013019 6.3744910731
N -1.4562201286 -1.2844309983 6.3493921443
O 0.7511680681 -2.0556030514 6.6114626128
C 0.3119206295 0.1759033587 7.4156022974
C 1.4477312507 0.2049176497 8.1099218650
Cl -0.8995922814 1.4371421870 7.6757128555
H -1.5856583790 -2.1437948841 6.8784768477
H -2.0506698774 -0.5730711947 6.7694490959
H 0.6831299899 -2.2906446301 7.5538918814
H 1.6500637287 0.9745978581 8.8463112885
H 2.2060260090 -0.5556262627 7.9538178653
C -0.3879119862 -6.1790203947 1.1293929041
N -0.2264889682 -6.4129540764 2.5609807274
O -1.7290347861 -6.4532269357 0.7800107761
C 0.5158999834 -7.0820776002 0.2785751878
C 1.6725510314 -6.7231370258 -0.2798972063
Cl -0.0164718197 -8.7440662522 0.2309380168
H -0.5673405805 -7.3544642938 2.7630886429
H 0.7620088440 -6.4163819564 2.8157485922
H -2.2833639252 -6.2042883654 1.5418820442
H 2.3057257189 -7.4446632605 -0.7837823174
H 2.0295059091 -5.6990592546 -0.2331394574
N -1.9548136957 -0.0120738359 -0.1122012022
C -2.3697532912 0.0559512612 -1.4066749117
C -3.7217766522 0.0101197011 -1.7416444419
C -4.6898589245 -0.1171964044 -0.7377906027
C -4.2400104320 -0.2154551766 0.5850075155
C -2.8772960351 -0.1530923906 0.8557793793
H -4.0393674585 0.0388801972 -2.7770624940
H -2.5011566118 -0.2162372701 1.8694910890
H -4.9429335728 -0.3461152116 1.4001506310
N -0.0780914271 0.1135941754 -1.9181729637
C -1.2806828396 0.1465453833 -2.4053875641
C -1.6159347025 0.2411196312 -3.8623155913
C -0.4187325668 0.4689635336 -4.7995883857
C 0.7910884749 -0.2839015471 -4.2420208043
C 1.0944480615 0.1791539861 -2.8180191337
H -0.1848445353 1.5393215783 -4.8469484383
H 0.5893930058 -1.3627927388 -4.2475366779
H 1.6851080236 -0.1186161982 -4.8487213418
H -2.0936534739 -0.7079426473 -4.1613232546
H -2.3738316240 1.0183417841 -4.0052959741
H 1.4515118332 1.2174290284 -2.8141307692
H 1.8824181302 -0.4271983824 -2.3651594814
C -0.8419458146 0.0428234175 -6.2453666822
N -1.2255748693 -1.3745720347 -6.2347472646
O -1.9893014738 0.8358745052 -6.4877773280
C 0.2495883749 0.3987062707 -7.2727561984
C 0.2892334034 1.5412545029 -7.9554642623
Cl 1.5089264757 -0.8146239949 -7.5321794453
H -2.0787255172 -1.4975010377 -6.7753432116
H -0.5106585305 -1.9675233058 -6.6508855609
H -2.2105627720 0.7811908218 -7.4343742823
H 1.0668625278 1.7479982342 -8.6822056128
H -0.4698448490 2.3009875290 -7.7990742944
C -6.1830686182 -0.3144568065 -1.0727959550
N -6.3951284623 -0.1559626374 -2.5077607466
O -6.4662076759 -1.6538184682 -0.7237534653
C -7.0944622868 0.5949052970 -0.2367672797
C -6.7389502299 1.7527511793 0.3214407426
Cl -8.7581629987 0.0675111811 -0.2072660479
H -7.3364771423 -0.4892054207 -2.7229848984
H -6.3858325953 0.8315264161 -2.7662335944
H -6.2133313487 -2.2102347861 -1.4828252600
H -7.4644431340 2.3905562038 0.8136315176
H -5.7131306860 2.1060213855 0.2857268208
