94
# extracted from Terachem optimization
Fe 0.0007081238 -0.1079411094 -0.0098406090
O 0.2171330896 1.9144007314 -0.2828708941
C 1.5885435932 2.3000049064 -0.6107372921
C 1.7897724262 3.7095819781 0.0037806535
C 0.3827154989 4.0839437557 0.4389571295
C -0.4169493847 3.0324152651 0.2838252520
H -1.4644284583 2.8947762922 0.4871401405
H 2.1946394668 4.4108524536 -0.7344112684
H 2.4795144074 3.6995334405 0.8592689093
H 1.6409110160 2.3392160189 -1.7054087082
N 1.9892000236 0.0247260509 0.1319495090
C 2.5079252512 1.1992177549 -0.1239515127
N 3.8197786396 1.4808889878 -0.0322766120
C 4.8826753187 0.5042041765 0.3102163137
C 4.2073779390 -0.7894683153 0.6893570716
C 2.8873902866 -0.9714626578 0.5821259905
H 5.4359805187 0.8931839409 1.1749607457
H 4.1158974749 2.4308765833 -0.2170655516
H 2.4185702518 -1.9113345438 0.8407093844
H 4.8504237932 -1.5790572837 1.0579998868
C 5.8869128822 0.3534992379 -0.8504524567
C 7.1271102514 -0.4288943371 -0.4465083860
O 7.2686862053 -0.9296675141 0.6467319506
H 5.4236329116 -0.1419417900 -1.7155413523
H 6.2175180307 1.3410969756 -1.2081405387
H 7.9105207955 -0.5134451793 -1.2259561138
C 0.0429198556 5.4445717193 0.9689652677
C -1.4308926894 5.7678381742 1.1352242704
O -2.3462303881 5.0093311026 0.8955009171
H 0.5224686377 5.6211055707 1.9465649537
H 0.4697017176 6.2280088951 0.3217018491
H -1.6268458863 6.7936836454 1.5046321065
O -0.3279998490 -2.1060718941 0.2185125129
C -0.8021440950 -2.4931226758 1.5434998903
C -0.0390553539 -3.7948432524 1.8964544552
C 0.5541514057 -4.1934751805 0.5537504519
C 0.3804669552 -3.1982429809 -0.3138530879
H 0.6789639143 -3.0867994141 -1.3424733851
H -0.7186331976 -4.5567900716 2.2934571059
H 0.7485334351 -3.6341848536 2.6459758382
H -1.8741652432 -2.6969949439 1.4334841720
N -0.2218104677 -0.1734263633 1.9875612496
C -0.6179638733 -1.3196825832 2.4806487708
N -0.8908097488 -1.5202956494 3.7821538107
C -0.9607831986 -0.4425035004 4.7986016338
C -0.2713795589 0.7680597338 4.2217911598
C 0.0245410679 0.8598710492 2.9212743688
H -0.4134592228 -0.7854069112 5.6842199438
H -1.1302101293 -2.4561275500 4.0848606696
H 0.4901471925 1.7416537487 2.4997632362
H -0.0484114618 1.5739188416 4.9102148994
C -2.4164132669 -0.1603311794 5.2299835350
C -2.4868178991 0.7278918166 6.4621202236
O -1.5091747208 1.2135160788 6.9871293830
H -2.9894333625 0.3225179518 4.4247489573
H -2.9438855072 -1.0988309213 5.4611491739
H -3.5052523386 0.9094259251 6.8599644892
C 1.2285813142 -5.5172496787 0.3511461444
C 1.8958480061 -5.7461008266 -0.9930393125
O 1.9236503140 -4.9418832637 -1.8990134028
H 1.9943664504 -5.6838301443 1.1268263703
H 0.5149523925 -6.3436822430 0.5049985379
H 2.3771881622 -6.7388663688 -1.0964012571
O -2.0781761530 -0.0609637842 -0.2469774174
C -2.5156964992 -0.0650824401 -1.6372828229
C -3.3474943058 1.2304372768 -1.8093759721
C -3.6942646867 1.5639368971 -0.3654620073
C -2.9331380427 0.8227987780 0.4370038551
H -2.8496809519 0.7960759038 1.5094166079
H -4.2335344257 1.0544380329 -2.4284689745
H -2.7736372808 2.0424028848 -2.2780915583
H -3.1685386507 -0.9407272033 -1.7489326764
N -0.1133236269 -0.2975652427 -2.0152924116
C -1.3122257078 -0.2371389140 -2.5372377658
N -1.5684280020 -0.3476654469 -3.8536933365
C -0.5551027169 -0.5938266444 -4.9077602590
C 0.7983845932 -0.6301622743 -4.2436364221
C 0.9544239885 -0.5026403511 -2.9219750293
H -0.5912223886 0.2366289883 -5.6252531600
H -2.5322162279 -0.2808513675 -4.1563411223
H 1.9263915896 -0.5571561546 -2.4479898155
H 1.6513457163 -0.7772044656 -4.8951064944
C -0.8762553503 -1.8883890616 -5.6816852176
C -0.0341337330 -2.0411893767 -6.9375704425
O 0.8181309099 -1.2471700882 -7.2697837423
H -0.7330789951 -2.7747666141 -5.0476431572
H -1.9335037693 -1.9046555578 -5.9901524384
H -0.2547197136 -2.9392723142 -7.5484707905
C -4.6856065285 2.6253094169 0.0066476962
C -4.8591372508 2.9072236093 1.4878810478
O -4.2764351427 2.3328074858 2.3833761538
H -4.4147633256 3.5832069120 -0.4653514819
H -5.6823752017 2.3914554778 -0.4013922095
H -5.5897871023 3.7093727667 1.7092986194
