94
# extracted from Terachem optimization
Fe 0.1824909938 -0.1144058826 -0.1351889114
O 0.3910998707 2.0482855943 0.2537325969
C 1.7562310738 2.5457581876 0.1683354770
C 1.8533588638 3.6738985840 1.2251510978
C 0.3871137664 3.9705300128 1.5019748165
C -0.3540590910 3.0099497635 0.9539777379
H -1.4166934953 2.8346942469 0.9617490536
H 2.3906028122 4.5434372955 0.8309468771
H 2.3700496906 3.3516304817 2.1406477785
H 1.8714395412 2.9666109946 -0.8394152222
N 2.2676433390 0.1550007661 0.1437990413
C 2.7155720752 1.3776309509 0.3052476059
N 4.0016594792 1.6775892452 0.5397709386
C 5.1199329468 0.7014642731 0.5377526629
C 4.5201078676 -0.6810906678 0.5037275233
C 3.2150269707 -0.8872412155 0.3045505873
H 5.6792286801 0.8336213920 1.4719454244
H 4.2464385731 2.6477679609 0.6966067637
H 2.7901507240 -1.8834684098 0.2699373710
H 5.2043403972 -1.5094131253 0.6429585662
C 6.0896235859 0.9727561192 -0.6299440777
C 7.3784879358 0.1738836997 -0.5017684813
O 7.5980157895 -0.5833835003 0.4166915065
H 5.6206295104 0.7443057577 -1.5972473175
H 6.3645508608 2.0385903647 -0.6697048527
H 8.1218944365 0.3360944787 -1.3076850224
C -0.0499916862 5.1521248461 2.3142840750
C -1.5431381643 5.3738921077 2.4604585015
O -2.4051125132 4.6598774647 1.9929119522
H 0.3680851760 5.1040932057 3.3341352569
H 0.3736028681 6.0830614365 1.9025471931
H -1.8099740428 6.2731062934 3.0499218989
O 0.1056228631 -2.3719314567 -0.1518363419
C -0.7222356846 -2.9484058156 0.8877616431
C -0.1486912277 -4.3646144947 1.1337785738
C 0.6688734043 -4.5902892865 -0.1308242551
C 0.7766100834 -3.4318891912 -0.7805238133
H 1.2959220887 -3.1682825634 -1.6872438638
H -0.9479883695 -5.1034509429 1.2574310428
H 0.4905243362 -4.4121474945 2.0271083256
H -1.7396470770 -3.0139274628 0.4791226810
N -0.3265757707 -0.7503701319 1.8529765032
C -0.7350798442 -1.9811426155 2.0525603263
N -1.2034684608 -2.4343223567 3.2243929309
C -1.4715388947 -1.5902836794 4.4143020679
C -0.7888959528 -0.2661207451 4.1906783230
C -0.3017648782 0.0861405515 2.9971075908
H -1.0247440991 -2.0885142678 5.2826633133
H -1.4273656521 -3.4189553888 3.3001574375
H 0.1662393751 1.0497855226 2.8393696161
H -0.7282287440 0.3986679968 5.0437586402
C -2.9859392912 -1.4521302656 4.6793770558
C -3.2739811545 -0.8639551766 6.0510928936
O -2.4061138968 -0.5012161370 6.8142214392
H -3.4703965196 -0.8159188643 3.9247556994
H -3.4831018289 -2.4328653869 4.6221433419
H -4.3467676879 -0.7852043820 6.3182697192
C 1.2552503131 -5.9275493864 -0.4673984494
C 2.1339104814 -5.9972785895 -1.7028643827
O 2.3966487875 -5.0588132778 -2.4223994712
H 1.8528309964 -6.3104195183 0.3768153683
H 0.4606833307 -6.6820142082 -0.5904484444
H 2.5381754320 -7.0075926784 -1.9132063044
O -2.1621145235 -0.0762510959 -0.5005124112
C -2.5508157400 0.2906785328 -1.8435061233
C -3.3558280880 1.6134687978 -1.7039551763
C -3.6908443134 1.6126549048 -0.2189434494
C -2.9760990411 0.6567441928 0.3732682606
H -2.9103373932 0.3625403405 1.4065682734
H -4.2484040843 1.6049743858 -2.3389794029
H -2.7641978558 2.4968489353 -1.9824136768
H -3.2060216012 -0.5085190445 -2.2147338597
N -0.1282489313 0.1792731169 -2.1921113221
C -1.3162607232 0.3509400439 -2.7195864614
N -1.5287497659 0.5745664262 -4.0247561153
C -0.4797685147 0.6616980009 -5.0700899955
C 0.8557447582 0.4773226248 -4.3962439787
C 0.9721702668 0.2511477715 -3.0847206473
H -0.5285824601 1.6616555626 -5.5218877062
H -2.4855133763 0.7004869382 -4.3336538514
H 1.9376248544 0.1116408023 -2.6107660552
H 1.7296198449 0.5380583088 -5.0331635352
C -0.7412202014 -0.3633559618 -6.1919167110
C 0.1486198414 -0.1320066824 -7.4030913698
O 1.0045732404 0.7242904904 -7.4435866569
H -0.5938746958 -1.3919926046 -5.8335156953
H -1.7866462210 -0.3086370007 -6.5336999629
H -0.0365814599 -0.8041200772 -8.2644910929
C -4.6316239039 2.6025141129 0.3993354292
C -4.8779995002 2.4732647177 1.8905507160
O -4.3908073124 1.6293585186 2.6126313039
H -4.2758362206 3.6316470721 0.2321226738
H -5.6155740579 2.5700917959 -0.0963128418
H -5.5701416045 3.2360361547 2.2976231834
