100
# extracted from Terachem optimization
Fe 0.2562278759 -0.1060466330 0.0385960984
O 0.5019420480 2.0112492540 0.0887968462
C 1.8075352294 2.2706267465 -0.5196043779
C 2.2807648088 3.7127229022 -0.3676469660
C 2.2891521146 4.1789801443 1.0930331382
C 1.0068075229 3.7296928453 1.7345015504
C 0.2260710967 2.7728329773 1.2419389632
H 3.1434125103 3.7407120509 1.6268981032
H 1.5995686525 4.3493726995 -0.9398985774
H 3.2723122906 3.7912078570 -0.8242696892
H -0.7257497522 2.4811031136 1.6559999077
H 0.6585240305 4.2211488320 2.6381881955
H 1.6449858500 2.0615931337 -1.5805040878
N 2.2537951209 0.0094397347 0.2345815872
C 2.7386108022 1.1920025303 0.0095163867
O 3.9988986296 1.5585467372 0.1371064141
C 5.0475968458 0.6174577474 0.5751291136
C 4.4624977881 -0.7311506696 0.8645652139
C 3.1629772672 -0.9815174330 0.6958614412
H 5.4829800487 1.0803163056 1.4697578271
H 2.7176930109 -1.9482341190 0.8856364680
H 5.1463875895 -1.5008619399 1.2024894754
C 6.1537605519 0.5833368641 -0.5019316686
O 7.1524283362 -0.3207122354 -0.1096726671
O 6.6118854308 1.8956204958 -0.6283590608
H 5.7459711254 0.1828296544 -1.4405916897
H 7.7057150350 0.1229084052 0.5583869912
H 7.2431875582 1.9344658660 -1.3670217096
C 2.4945385179 5.7071675263 1.2082897037
O 2.6113376154 6.1156570334 2.5487117073
O 1.4134714542 6.3266827946 0.5576158724
H 3.4559068594 5.9675338494 0.7452964943
H 1.7116490638 6.2464287596 2.8925507697
H 1.6026237232 7.2778851828 0.4907450257
O -0.2259498967 -2.1396648792 0.0434489665
C -1.0041019053 -2.4937458211 1.2338508644
C -1.0311809239 -3.9939090514 1.5209553943
C 0.3617712183 -4.6368551412 1.4885992903
C 1.0482069199 -4.1932789965 0.2256757438
C 0.7316774365 -3.0669650650 -0.4050886232
H 0.9520026490 -4.3198280053 2.3601980165
H -1.6495146604 -4.4747671341 0.7583963738
H -1.5248194518 -4.1390588648 2.4862955914
H 1.1570350216 -2.7248381329 -1.3399234609
H 1.8135771707 -4.8159461027 -0.2269612451
H -2.0205090659 -2.1572810801 1.0074628101
N 0.0871680714 -0.4762596117 2.0541440575
C -0.4824415360 -1.6061629939 2.3462795101
O -0.6701533026 -2.0975977205 3.5553453493
C -0.4597087134 -1.2665032225 4.7516848159
C 0.4540280476 -0.1269273365 4.4191145290
C 0.6674111805 0.2244842908 3.1488614687
H -0.0187076889 -1.9559224146 5.4788655879
H 1.3020793218 1.0547935910 2.8742160557
H 0.9159701063 0.4124826254 5.2372475478
C -1.8260900432 -0.8119679478 5.3065012206
O -1.6241007051 -0.0354099300 6.4578494653
O -2.5655669597 -1.9726350330 5.5430040607
H -2.3158682252 -0.1397667432 4.5866322270
H -1.4077308502 -0.6424781083 7.1887934662
H -3.4531954489 -1.7159212479 5.8467247543
C 0.2726229886 -6.1761713112 1.6088302433
O 1.5444435678 -6.7771120359 1.6116565786
O -0.5279187272 -6.6357662559 0.5498577559
H -0.1630412414 -6.4225782538 2.5865314025
H 1.7972009364 -6.9278107672 0.6850869706
H -0.7177606165 -7.5778946400 0.6961831051
O -1.8430598430 -0.0155715899 -0.1887970074
C -2.2282480240 -0.3620070954 -1.5577806365
C -3.5497673349 0.2592114071 -2.0082701019
C -3.6397963758 1.7541245999 -1.6678788217
C -3.3366369556 1.8923776616 -0.2005044569
C -2.5397563645 1.0395239268 0.4323902624
H -2.9073776939 2.3259256294 -2.2560816253
H -4.3702266172 -0.2594441755 -1.5058609232
H -3.6517956852 0.0762962452 -3.0822972607
H -2.3426058364 1.0313032328 1.4964173263
H -3.8187850654 2.6605046857 0.3954924837
H -2.3328707096 -1.4541624021 -1.5481029116
N 0.1624014317 -0.0112887961 -1.9644189960
C -1.0370685208 -0.0791595438 -2.4555984073
O -1.3419258878 -0.0801182540 -3.7398169050
C -0.3483033636 0.3574766276 -4.7345252328
C 1.0308827473 0.0838668168 -4.2166324835
C 1.2295962283 -0.0615651831 -2.9047390539
H -0.5331618756 1.4296578841 -4.8953721860
H 2.1976905722 -0.2718169061 -2.4675789690
H 1.8381288331 0.0095699518 -4.9364560140
C -0.6591599113 -0.3675367420 -6.0570358704
O 0.2977258058 0.0034039161 -7.0156114142
O -1.9596391606 -0.0000372110 -6.4064942255
H -0.5450874001 -1.4509621632 -5.9230818459
H 0.0445637987 0.8788441654 -7.3597323346
H -2.2420043104 -0.5398855931 -7.1643490421
C -5.0158253052 2.3407868850 -2.0534448523
O -5.0786303296 3.7278121797 -1.8403254505
O -5.9845129448 1.6425751141 -1.3123218810
H -5.1579795324 2.2137887616 -3.1350918496
H -5.2847012878 3.8731411939 -0.9015421541
H -6.8634167613 1.8998001391 -1.6386538484
