139
# extracted from Terachem optimization
Fe -0.2313490964 -0.1989209996 -0.1628865511
N 0.0956291270 1.8521057305 -0.3114812042
C 1.3503252930 2.2347278366 -0.2480520002
O 1.4921240324 3.5437820479 -0.2986672935
C 0.2098113954 4.0854263856 -0.3942472858
C -0.6503203841 3.0302344459 -0.4038505076
H -1.7258848615 3.0283621110 -0.4563437139
O 1.9280832313 -0.0352586697 -0.1880508690
C 2.5201266420 1.3083389449 -0.1715121554
O 3.2131921898 1.5395390049 0.9961177134
C 4.3988090626 0.6831490617 1.1824981865
C 3.8925608522 -0.7679283904 1.1072566554
C 3.0171296416 -1.0402240286 -0.1110799591
H 4.6776103354 0.9030763083 2.2140003715
H 3.1655171904 1.3839302665 -1.0545534593
H 2.5238160474 -2.0092628379 -0.0462326253
H 3.5690647894 -0.9710135578 -1.0498495650
H 4.7254880882 -1.4755920816 1.0889312158
H 3.3023529261 -0.9696288277 2.0083736817
C 5.5762815285 1.1475032854 0.2735962974
O 5.2178876522 0.9707275933 -1.1070443492
C 5.8108739364 2.6572904557 0.4764696859
C 6.9227785308 0.4229273439 0.5826600548
C 7.3290389135 0.3080647195 2.0467258761
Cl 6.9737264765 -1.2582992226 -0.1915538006
H 5.7593968673 0.2511987614 -1.4804945362
H 6.0535706673 2.9020596003 1.5144453629
H 6.6322016216 2.9881400081 -0.1640125450
H 4.9192651126 3.2235608971 0.1990037279
H 7.6940755375 0.9574911645 0.0247020775
H 6.6554298110 -0.3369928090 2.6191157532
H 8.3338222630 -0.1140320042 2.1188432133
H 7.3518039783 1.2996004440 2.5108953263
C 0.1382961211 5.6064482754 -0.3400704353
O 0.4331806158 5.9735910744 0.9992331081
C 1.2581200469 6.2214446239 -1.1971561146
C -1.2316805008 6.1708975938 -0.7894868819
C -1.6509704809 5.9134770449 -2.2294191677
Cl -2.5539384634 5.5786261664 0.3610323977
H -0.3882739967 5.9338101509 1.5233470498
H 1.2503970355 5.8443588792 -2.2231730961
H 1.1434132655 7.3083387576 -1.2139132134
H 2.2245172092 5.9958780235 -0.7407403303
H -1.1906154204 7.2434904362 -0.5898096836
H -1.7116982117 4.8457452101 -2.4620963520
H -2.6291878783 6.3616897577 -2.4178896940
H -0.9354897309 6.3809030731 -2.9133776855
N -0.0929856234 -2.2031358365 0.3616268333
C -0.1503720882 -2.4665744458 1.6481870640
O -0.0169562278 -3.7485584581 1.9178409877
C 0.1500354954 -4.4027654540 0.6969952727
C 0.0924069905 -3.4380285544 -0.2629437274
H 0.1804966568 -3.5424334826 -1.3312881491
O -0.5426574449 -0.1905004712 1.9198652970
C -0.3691595109 -1.4271485676 2.6997124442
O 0.7371460293 -1.3545613788 3.5119820664
C 0.6694461594 -0.3257630338 4.5663737353
C 0.4280814875 1.0130632872 3.8464630114
C -0.7178227956 0.9599933168 2.8411806826
H 1.6886457420 -0.3376283668 4.9545537381
H -1.2965918270 -1.5793119876 3.2641088502
H -0.7317489426 1.8337563072 2.1927211080
H -1.6876366009 0.8287708370 3.3225722310
H 0.2058458272 1.8082864726 4.5629639732
H 1.3490772308 1.2838731496 3.3187009431
C -0.2781926238 -0.7571922311 5.7212361005
O -1.6163659502 -0.8076911225 5.1976332245
C 0.0942150152 -2.1759160009 6.1972809076
C -0.2010754892 0.1809662260 6.9677276743
C 1.1918428388 0.5761119541 7.4459817453
Cl -1.2171527000 1.7028328019 6.7402923440
H -2.2073890504 -0.2850719749 5.7673403568
H 1.1148956417 -2.2272450503 6.5872787615
H -0.5954324098 -2.4884396527 6.9857458415
H 0.0112894043 -2.8907387588 5.3764005695
H -0.7279680223 -0.3367288932 7.7725593096
H 1.7088485694 1.2250282844 6.7322946074
H 1.1165689671 1.1171540632 8.3918209068
H 1.8015806993 -0.3163131229 7.6219179176
C 0.4948467652 -5.8852026831 0.7863409418
O 1.8573040061 -5.9421145562 1.1864748125
C -0.3028441228 -6.5592858640 1.9151322668
C 0.2640686838 -6.6470823072 -0.5407583878
C -1.1634303978 -6.7068439568 -1.0635628573
Cl 1.3816419971 -5.9675741037 -1.8523952449
H 2.4182489774 -5.8958226446 0.3900103883
H -1.3798942823 -6.4022375819 1.8150060645
H -0.0955357039 -7.6323952249 1.9084456380
H 0.0288106402 -6.1622637640 2.8770554116
H 0.6553154604 -7.6537399336 -0.3807885533
H -1.5869096071 -5.7119491939 -1.2342620786
H -1.1937671255 -7.2610615233 -2.0043811680
H -1.7984978440 -7.2371302402 -0.3468482147
N -2.2572837821 0.0379752971 -0.5203853003
C -2.5945712948 -0.0887481645 -1.7857617298
O -3.8738960248 0.1369704304 -2.0001641341
C -4.4412987482 0.4502630204 -0.7643402708
C -3.4311524314 0.3818037674 0.1483278056
H -3.4637652813 0.5603119652 1.2095964273
O -0.3379753777 -0.5740356918 -2.2145851556
C -1.6524613389 -0.4764058255 -2.8800410854
O -1.6474867412 0.4970689186 -3.8473202767
C -0.7472606768 0.2336250708 -4.9834587073
C 0.6569058585 0.0449889145 -4.3830923951
C 0.6932760182 -0.9349996881 -3.2160848696
H -0.7705782710 1.1862980055 -5.5140798432
H -1.8655112293 -1.4712791660 -3.2890402991
H 1.6355709479 -0.8901647207 -2.6714365510
H 0.4830067464 -1.9602177623 -3.5269506875
H 1.3635706513 -0.3089261767 -5.1383495926
H 1.0066585131 1.0237565484 -4.0353772251
C -1.3440254695 -0.8435317799 -5.9394232997
O -1.4685714281 -2.0926934561 -5.2384088541
C -2.7709230798 -0.4250558403 -6.3412000151
C -0.5229023814 -1.0311670257 -7.2524916595
C -0.0841431196 0.2332018904 -7.9809012879
Cl 0.9556276567 -2.1096149351 -6.9658025983
H -0.8266303608 -2.7257233978 -5.6100274070
H -2.7901146168 0.5399958032 -6.8558377875
H -3.2021383330 -1.1837910012 -6.9988542393
H -3.4057487106 -0.3454464828 -5.4560684095
H -1.1350210410 -1.6476580248 -7.9136634810
H 0.6357796162 0.8205477922 -7.4030569758
H 0.3873660542 -0.0309968657 -8.9300706548
H -0.9531354303 0.8601920336 -8.2066105886
C -5.8977904422 0.8974322427 -0.8021132603
O -5.8829631543 2.2376707988 -1.2748453930
C -6.6822735321 0.0923800369 -1.8508707772
C -6.6069867094 0.7923051973 0.5701275195
C -6.7451000807 -0.5975261955 1.1735249622
Cl -5.7843716492 1.9200036031 1.7852188225
H -5.7332598296 2.8358657726 -0.5187428115
H -6.6125320953 -0.9854530795 -1.6837841248
H -7.7326025050 0.3928844904 -1.8182014084
H -6.3000388997 0.3259752281 -2.8469167162
H -7.5890830099 1.2495356357 0.4338598565
H -5.7765870855 -1.0851284456 1.3244808872
H -7.2524170164 -0.5348645876 2.1389018536
H -7.3559456352 -1.2280325818 0.5198073336
