139
# extracted from Terachem optimization
Fe -0.0595888718 -0.1716267810 -0.1402128314
N 0.5328853677 1.8832113457 -0.2597405753
C 1.7241507014 2.2147543142 0.1069671273
N 1.9686758188 3.5610368167 0.2097159483
C 0.7475808596 4.2856821573 -0.2466198834
C -0.1988217353 3.1051290150 -0.6008009919
H -1.1297289098 3.1592008683 -0.0388358359
H -0.4541857376 3.0835146167 -1.6666251055
H 0.9836278685 4.9000136175 -1.1174089412
H 2.8856770182 3.9325800631 -0.0086411412
N 2.2360519061 -0.0736431311 0.2545487528
C 2.6804269830 1.1304635659 0.4424153340
S 4.2386157025 1.6271107645 1.0653022478
C 5.1775532057 0.0051957777 1.2597275714
C 4.3239664842 -1.1818483775 0.9232061589
C 3.0464391279 -1.1893900424 0.5117804228
H 5.4417306088 -0.0102118319 2.3193538103
H 2.5321126988 -2.1265635745 0.3291996948
H 4.8393417547 -2.1325522427 1.0330481194
C 6.5565928233 0.0787187176 0.5038941995
N 6.3150332270 -0.0783695095 -0.9367179135
N 7.1870957615 1.3353200319 0.9162296080
C 7.4041059888 -1.1088474992 1.0029495128
C 8.2193170259 -0.9993089173 2.0653830381
N 7.1467853682 -2.3098805218 0.3343089310
H 5.6328309683 0.6093895674 -1.2551978918
H 7.1787117332 0.1137297086 -1.4450946795
H 8.2008379162 1.2593428201 0.8690473443
H 6.9082859695 2.0904538053 0.2940594510
H 8.8015968716 -1.8470747090 2.4146116675
H 8.2990840497 -0.0796789629 2.6298100758
H 6.9185995303 -2.1928510304 -0.6468619462
H 7.8337023844 -3.0366396394 0.5009890333
C 0.2142828514 5.2681720523 0.8449989164
N 0.0045981793 4.4965180669 2.0911725398
N 1.1925305337 6.3519551024 0.9279557454
C -1.1349289434 5.8460661966 0.3789239374
C -1.2082511015 6.9770366744 -0.3383757581
N -2.2509857853 5.0330035796 0.6686141167
H 0.9000500195 4.0873644100 2.3590535938
H -0.2415170990 5.1445588551 2.8409424289
H 0.8124324754 7.1402862148 1.4484310974
H 2.0305065081 6.0383975164 1.4149805540
H -2.1639092823 7.3698206647 -0.6740927054
H -0.3160539353 7.5199481546 -0.6198545425
H -2.1838046575 4.5701256604 1.5691020777
H -3.1520468239 5.4890188882 0.5525350620
N -0.2879309282 -2.2729919011 0.2011291459
C -0.5912141168 -2.5850744398 1.4327771022
N -0.9450070246 -3.8663039234 1.6430287686
C -0.8044917943 -4.6341978045 0.3974316569
C -0.4099454644 -3.5075569918 -0.6039741100
H 0.5299212112 -3.7175422900 -1.1264653054
H -1.1752702688 -3.3693462302 -1.3736424446
H -1.7754680995 -5.0708082597 0.1435498073
H -0.9333374982 -4.3617633302 2.5292201950
N -0.4120833981 -0.3204161809 2.1011100888
C -0.5967416486 -1.5428854514 2.4996928680
S -0.9044575100 -2.1131615025 4.1307195126
C -0.3119882857 -0.6453017197 5.1194360792
C -0.5080613803 0.6307365559 4.3500101050
C -0.5127487209 0.7433089463 3.0125441115
H 0.7516671338 -0.8195118048 5.3177623894
H -0.5914666165 1.7174696491 2.5398495108
H -0.5889495409 1.5339427920 4.9488304596
C -1.0836397993 -0.7008075855 6.4831343640
N -2.5150823199 -0.4426308997 6.3656573570
N -0.9768339995 -2.0926224706 6.9372612001
C -0.5019751473 0.2967885095 7.5102126351
C 0.6708996282 0.9444737050 7.3697349229
N -1.2721409334 0.3300534531 8.6648773944
H -2.7012106536 0.4350329577 5.8852972523
H -2.9670611691 -1.1960617525 5.8504722792
H -0.0165336617 -2.2890483285 7.2188647371
H -1.5465797063 -2.2026707865 7.7760476922
H 1.0517992889 1.5835959292 8.1611213386
H 1.3124420129 0.8235459713 6.5069978754
H -2.2705781572 0.2482650215 8.5071716392
H -1.0170150416 1.0303658457 9.3497722257
C 0.2144462864 -5.7989062510 0.6048253354
N 1.5679379188 -5.3594653046 0.9495266650
N -0.2681785048 -6.5112885360 1.8014302316
C 0.3204284684 -6.7037778869 -0.6341784071
C -0.4808169978 -6.6058758161 -1.7116983095
N 1.2640195552 -7.7086991405 -0.4552164452
H 1.9772840240 -4.7799389297 0.2206820035
H 1.5660051387 -4.8476049289 1.8292807254
H -1.1258708250 -7.0139483113 1.5711489830
H 0.4157080573 -7.2286615693 2.0411612780
H -0.3897020195 -7.3019204250 -2.5406528945
H -1.2871759433 -5.8876611116 -1.7806536748
H 2.0915824561 -7.4248211614 0.0574144560
H 1.4628030529 -8.2806650593 -1.2664784508
N -2.0781897303 0.2724045783 -0.6934997206
C -2.3814103229 0.1402030263 -1.9560530866
N -3.6557889851 0.4259389954 -2.2820783952
C -4.3619619468 0.9581182304 -1.1071610669
C -3.2828025449 0.7790516535 0.0005420863
H -3.0590999896 1.7200364576 0.5146912066
H -3.5980617474 0.0584302627 0.7608602073
H -5.2377343650 0.3320918421 -0.9154262637
H -4.0080623074 0.6349931000 -3.2105090241
N -0.1585617634 -0.4744397081 -2.4385385438
C -1.3498425024 -0.3147765911 -2.9270831390
S -1.8970991685 -0.6045505121 -4.5727313339
C -0.2644093200 -0.5594906121 -5.4755736168
C 0.8518664435 -1.0404285431 -4.5910197662
C 0.8732166707 -0.9658685231 -3.2508092492
H -0.1001527749 0.4824819257 -5.7730766582
H 1.7520319892 -1.2779068769 -2.6960603208
H 1.7289363450 -1.4227000078 -5.1068109580
C -0.4667113190 -1.4162893412 -6.7724296944
N -0.6569413344 -2.8407608707 -6.5143500712
N -1.7346520327 -0.9572604480 -7.3537985069
C 0.7149546212 -1.2655799401 -7.7564154555
C 1.6697144159 -0.3194501913 -7.6689254685
N 0.5854883487 -2.1382709733 -8.8287457903
H 0.0985296208 -3.2255896493 -5.9511564816
H -1.5365594868 -2.9927671023 -6.0237659878
H -1.6185980130 -0.0174397861 -7.7326522943
H -1.9565903028 -1.5578527096 -8.1475653439
H 2.4355196865 -0.2300307020 -8.4339060874
H 1.6946278391 0.4220185000 -6.8815802222
H 0.1989152563 -3.0442072839 -8.5874489158
H 1.3698573694 -2.1790164989 -9.4673330715
C -4.8480934971 2.4188775237 -1.4012384069
N -3.7955855795 3.3483896217 -1.7722213935
N -5.6786155424 2.2749698094 -2.6160503547
C -5.6156834522 3.0090103302 -0.2012704459
C -6.2801339731 2.2596440286 0.6962068433
N -5.5702333512 4.4080900517 -0.1346903069
H -3.2096130410 3.6510393623 -0.9946666645
H -3.2328234183 2.9944475633 -2.5400561801
H -6.5750632565 1.8498547784 -2.3809430855
H -5.8745381576 3.1998186457 -2.9960340117
H -6.8700614059 2.7208462221 1.4832086300
H -6.2791958749 1.1779203647 0.6760870734
H -5.3894074153 4.8594369268 -1.0242280529
H -6.3432721527 4.8308048640 0.3676189912
