142
# extracted from Terachem optimization
Fe 0.0448892773 0.0064649078 -0.1108292398
N 0.3289483494 1.9645527401 -0.2776581603
C 1.5873737986 2.3155155538 -0.1794268292
C 1.7428535082 3.7866414826 -0.3406983495
C 0.3158838053 4.2263868246 -0.5506148333
C -0.4595707388 3.1069209425 -0.5035146509
H -1.5328985402 3.0289787943 -0.5788098668
H 2.4001420982 4.0489812816 -1.1835239269
H 2.2019369748 4.2574424239 0.5416785456
N 2.0044468088 0.0304232159 0.1109498073
C 2.5271808544 1.2331176069 0.0711672098
O 3.7782889066 1.5685679190 0.2551788156
C 4.7803541799 0.5204945954 0.6548966060
C 4.3445585517 -0.7946164175 0.0252663735
C 2.8871804097 -1.1166976593 0.3785985776
H 4.6859469577 0.4766682485 1.7442523433
H 4.4722969839 -0.7419382787 -1.0629617100
H 4.9871124412 -1.6024758360 0.3851580133
H 2.7935520805 -1.3894321439 1.4378359450
H 2.5249423630 -1.9668413278 -0.2053144777
C 6.1334043029 1.1006684125 0.2639297681
C 7.4189812819 0.4443685654 0.8735166301
O 8.4380520204 1.4394969427 0.8006193394
C 7.2592223353 0.1603469621 2.3712588868
C 7.8699646179 -0.8128559469 0.1169333996
H 6.2149870007 1.1271836600 -0.8306599103
H 6.1431161812 2.1376620499 0.6146509806
H 8.8339089625 1.4334798639 -0.0861505960
H 6.5321075708 -0.6370822754 2.5678964096
H 8.2223489378 -0.1585581223 2.7775253743
H 6.9567064134 1.0644231064 2.9113906386
H 7.1608649334 -1.6437293874 0.2068594751
H 8.0059821406 -0.6034380974 -0.9520425832
H 8.8278316282 -1.1536255437 0.5207284969
C -0.1291887289 5.6406278064 -0.7408283043
C -0.8849713798 6.2440952409 0.4827523099
O -1.9882845872 5.3450782343 0.7032674796
C 0.0017076851 6.3013798351 1.7333957714
C -1.4011949629 7.6370490855 0.1061077004
H 0.7297571791 6.2779161650 -0.9706471754
H -0.8148163002 5.6872614936 -1.5940427321
H -2.6256642614 5.7989671698 1.2783822449
H 0.8898837346 6.9218535844 1.5711869057
H -0.5529697817 6.7393114234 2.5703009238
H 0.3185042700 5.2969614245 2.0384470367
H -0.5804115278 8.3216064023 -0.1307234624
H -2.0722323154 7.5828677855 -0.7567704718
H -1.9558231559 8.0743786667 0.9451232481
N -0.2112137276 -1.9570091363 0.1094695548
C -0.4299168789 -2.3113092093 1.3502992815
C -0.6603215819 -3.7774346470 1.4514005170
C -0.5295811763 -4.2116893617 0.0134019840
C -0.2697242037 -3.0925246614 -0.7194764350
H -0.0905212593 -3.0130582537 -1.7797340494
H -1.6446570615 -4.0135922181 1.8839337679
H 0.0701658137 -4.2708373853 2.1105339295
N -0.1978992480 -0.0347461322 1.8630430340
C -0.4093910151 -1.2392789938 2.3350311173
O -0.5885924451 -1.5937593549 3.5819370852
C -0.5264593120 -0.5634322914 4.6741748856
C -0.9692597861 0.7659517126 4.0783062644
C -0.1776149161 1.0959138476 2.8062804216
H 0.5346526255 -0.5373840635 4.9413549828
H -2.0424750197 0.7287714573 3.8528381554
H -0.8245733626 1.5617661178 4.8140849014
H 0.8666906213 1.3370113576 3.0454280182
H -0.6076023746 1.9645828421 2.3021441724
C -1.3619559508 -1.1373370301 5.8150293206
C -1.0048614652 -0.7125083749 7.2768467003
O -1.8132144443 -1.5355522372 8.1158082693
C 0.4383446913 -1.0818991812 7.6334180541
C -1.2839364175 0.7683330550 7.5662805829
H -2.4231827905 -0.9253047378 5.6293413811
H -1.2452992134 -2.2254557477 5.7895884249
H -2.6998285845 -1.1466713897 8.1925651695
H 1.1697110342 -0.4921512951 7.0684256447
H 0.6066406037 -0.8915981376 8.6966370626
H 0.6207830637 -2.1462277313 7.4526528007
H -0.5962635089 1.4367489972 7.0344916117
H -2.3105386972 1.0428317795 7.2896274533
H -1.1585444423 0.9578537704 8.6364795187
C -0.6641867427 -5.6226127159 -0.4682306148
C 0.6236255450 -6.2178162085 -1.1104594692
O 0.9500290486 -5.3103228911 -2.1798423736
C 1.7824140832 -6.2802043990 -0.1059660339
C 0.3036504705 -7.6077386671 -1.6711390296
H -0.9806945577 -6.2690654997 0.3558207049
H -1.4504736114 -5.6601219622 -1.2317155345
H 1.5833017665 -5.7615472060 -2.7616599938
H 1.5477817749 -6.9297063875 0.7445967076
H 2.6789805591 -6.6849825410 -0.5877566305
H 2.0302514607 -5.2801743561 0.2697983373
H -0.0071352293 -8.2992761351 -0.8813175514
H -0.4932242617 -7.5537881495 -2.4195532674
H 1.1931851502 -8.0383367409 -2.1465487881
N -1.9278161087 0.1487613241 -0.4109721701
C -2.2677771389 0.0769239532 -1.6721302654
C -3.7442808381 0.1644635237 -1.8282187191
C -4.2014586328 0.2999946353 -0.3972644816
C -3.0842661218 0.2831798325 0.3819063382
H -3.0146033623 0.3731314724 1.4531709719
H -4.1624792993 -0.7217727692 -2.3295011352
H -4.0472708029 1.0190927920 -2.4521244313
N 0.0255869767 -0.1074989790 -2.1083635269
C -1.1738013113 -0.0557686821 -2.6264737690
O -1.5066941734 -0.0869506062 -3.8926865645
C -0.4407292613 -0.1413168686 -4.9511074273
C 0.7682835739 -0.8475110436 -4.3522594576
C 1.1774559459 -0.2174547122 -3.0151795776
H -0.2212155891 0.9117974425 -5.1512923817
H 0.5384909733 -1.9110355822 -4.2121223473
H 1.6070671588 -0.7907707478 -5.0506908325
H 1.6036526693 0.7827838516 -3.1674788806
H 1.9409682026 -0.8239742216 -2.5224512973
C -1.1123620627 -0.7929130180 -6.1554014510
C -0.5064318228 -0.5335790955 -7.5744079934
O -1.4795615380 -1.0222613442 -8.4961073215
C -0.3994413579 0.9656731526 -7.8742160211
C 0.8346350247 -1.2413280406 -7.8076665913
H -1.1859684083 -1.8751950478 -5.9847721077
H -2.1354455453 -0.4064443894 -6.2017673351
H -1.3672219490 -1.9804125480 -8.6075725989
H 0.3570085104 1.4610545340 -7.2539374448
H -0.1153931888 1.1027785077 -8.9208161834
H -1.3650797706 1.4600332391 -7.7249926828
H 1.6517451195 -0.8021240052 -7.2237322564
H 0.7729900824 -2.3092884375 -7.5599486159
H 1.1085486346 -1.1538925318 -8.8633604057
C -5.6397075345 0.3880606033 0.0143386223
C -5.9940839457 1.5000163879 1.0354943056
O -5.1644526602 1.2260856347 2.1854112956
C -5.6841749757 2.9008599173 0.4914372800
C -7.4734746071 1.3699833929 1.4161522169
H -6.2663472786 0.5120181050 -0.8745491683
H -5.9224239227 -0.5718469015 0.4681353805
H -5.5180789285 1.7445349536 2.9266630278
H -6.2689244124 3.1191780207 -0.4089050649
H -5.9439696458 3.6586039296 1.2388650926
H -4.6189980390 3.0113250324 0.2586135410
H -8.1275672145 1.5192315689 0.5511143127
H -7.6790490430 0.3842116699 1.8447968075
H -7.7422655208 2.1298619703 2.1597757835
