64
# extracted from Terachem optimization
Fe -0.0582485100 -0.0491031549 -0.0275359126
N 0.2248636175 1.9094235514 -0.3555384213
C 1.5295562072 2.2140341088 -0.5569806785
N 1.6524413626 3.5356543223 -0.7818937084
C 0.4016366327 4.1033736523 -0.7245633573
C -0.4846047876 3.0708694702 -0.4589739542
H -1.5549693897 3.1266378813 -0.3336437469
H 2.4923943056 4.0846538777 -0.9673465047
N 1.9207931682 -0.0458134365 -0.2630126893
C 2.4680937540 1.1330894522 -0.5063356575
C 3.9483248164 1.0185811270 -0.6520243451
C 4.1442651924 -0.4596281211 -0.4494916111
C 2.9346674325 -1.0264150042 -0.2244713133
H 2.6919534377 -2.0638376320 -0.0465594451
H 4.3162652414 1.3612361525 -1.6318253957
H 4.4993744479 1.6171151842 0.0907098074
C 5.4964537808 -1.0693755550 -0.5130674855
O 6.4692696991 -0.4077341191 -0.7238166033
Cl 5.5335174720 -2.8194234555 -0.2528878360
C 0.2890640853 5.5719511109 -0.9360332412
O 1.2728704987 6.2221890336 -1.1445838325
Cl -1.3393981681 6.1998726490 -0.8501802900
N -0.2274817118 -1.9698942737 0.4479284069
C -0.0665289310 -2.2121969511 1.7724332368
N -0.2082095545 -3.5292010896 2.0073387200
C -0.4655860220 -4.1587315416 0.8119297380
C -0.4778011849 -3.1677252159 -0.1572682414
H -0.6372007858 -3.2784556690 -1.2191904251
H -0.1463477147 -4.0393431930 2.8890590440
N 0.2187582149 0.0680114726 1.9439270825
C 0.1854847248 -1.0761571677 2.6070016047
C 0.4448061415 -0.8649816862 4.0601710908
C 0.6330054101 0.6276018046 4.1040937902
C 0.4934860862 1.1154420417 2.8479780910
H 0.5521302142 2.1390126717 2.5079150800
H -0.3840250799 -1.2017711260 4.7025389307
H 1.3317572727 -1.4085856445 4.4223019290
C 0.9195429852 1.3289937517 5.3805041169
O 1.0236145265 0.7349982610 6.4118963383
Cl 1.0938771177 3.0853607247 5.2349403234
C -0.6496979997 -5.6351932948 0.8268524792
O -0.5695036200 -6.2350371357 1.8600659506
Cl -0.9721687878 -6.3483431277 -0.7347530282
N -2.0377849574 0.1476747095 -0.0154104935
C -2.5820808913 0.0436417820 -1.2518948261
N -3.9183765298 0.1841323787 -1.1653416830
C -4.2498636460 0.3837870001 0.1542132622
C -3.0592193963 0.3554096046 0.8646546336
H -2.9146624282 0.4818825766 1.9271403738
H -4.6202279385 0.1565691305 -1.9054328094
N -0.4171103695 -0.3118140015 -1.9810874580
C -1.6857143143 -0.2075324001 -2.3403881819
C -1.8461154926 -0.3707001056 -3.8139884702
C -0.4189876590 -0.5938699133 -4.2351219428
C 0.3662188269 -0.5457374913 -3.1325511607
H 1.4361376239 -0.6720548520 -3.0565346007
H -2.5019436206 -1.2111669055 -4.0901154075
H -2.2894801147 0.5143516234 -4.2970776104
C -0.0668425170 -0.8219180201 -5.6590262141
O -0.9019561304 -0.8305868647 -6.5143251050
Cl 1.6579818260 -1.0728308884 -5.9648713573
C -5.6853016916 0.5745492484 0.4950404042
O -6.5134555014 0.5557906023 -0.3701112860
Cl -6.0044333455 0.8176979711 2.1953259454
