133
# extracted from Terachem optimization
Fe 0.0111436845 -0.0047867099 -0.2382390270
O 0.5777156373 2.1573750514 -0.7254977107
C 1.8990577105 2.5874921164 -0.2754303521
C 1.6220134087 3.7615778314 0.6986399213
C 0.2576336454 4.2306495935 0.1971867609
C -0.2520748062 3.2604001525 -0.5675190372
H -1.2181450477 3.1728991084 -1.0384266351
H 2.4250171139 4.5013906107 0.6267912661
H 1.5826297804 3.4423370755 1.7495667378
H 2.3895206977 2.9901186879 -1.1721827974
N 2.1701470486 0.1664143112 0.0493065562
C 2.6955916022 1.4013708927 0.2166889141
C 3.9594348701 1.6074996914 0.7574186021
C 4.7415769888 0.5131541565 1.1418994570
C 4.2127895760 -0.7681835045 0.9277976977
C 2.9379001796 -0.8924180573 0.3973558813
H 4.3566916909 2.6059444368 0.8970661977
H 2.4934073362 -1.8694380965 0.2396624452
H 4.7946988795 -1.6507307796 1.1698537109
C 6.0962963548 0.7351702155 1.7652745498
O 6.1739486852 2.0822210568 2.1646975481
C 7.2984818794 0.3475979094 0.8117630259
N 7.0732927692 0.8178165620 -0.5405077400
O 8.4494641948 1.0176114890 1.3150950126
N 7.4594995315 -1.0862582165 0.9006590846
H 6.1821811548 0.0677289618 2.6378403264
H 7.0896092676 2.2085471995 2.4718298512
H 7.9247532976 0.6774181650 -1.0858936956
H 6.3454499630 0.2653405832 -0.9896204626
H 8.5301531812 1.8610720925 0.8350411329
H 8.1850292805 -1.3889840254 0.2501561419
H 7.7914740322 -1.3438364931 1.8311263894
C -0.5513782764 5.4267926238 0.6473332738
O -1.8493481501 5.4176320128 0.0872630622
C -0.0191246870 6.8405580895 0.2581213598
N 0.2112832812 6.9445872539 -1.1696362462
O -0.9104138948 7.8140570855 0.6611753938
N 1.2319654259 7.1901952649 0.9018316619
H -0.5781775548 5.4497995993 1.7480294808
H -2.4587889004 4.7912830183 0.5536850832
H 0.3368818904 7.8732671439 -1.5640375448
H 0.5394708762 6.1520854401 -1.7126769855
H -1.8014512294 7.4763718025 0.4379325969
H 2.0733262476 6.6985862363 0.6192663171
H 1.3644028964 8.1924556129 1.0357450512
O -0.1627058950 -2.2025995455 0.0118634352
C -0.6057685015 -2.6263437780 1.3469916295
C 0.1815730609 -3.9233517217 1.6425446896
C 0.6365396406 -4.3334352655 0.2570809291
C 0.4271074176 -3.3202950107 -0.5884238264
H 0.6589666231 -3.2123799699 -1.6372796669
H -0.4405743399 -4.6911734392 2.1088735378
H 1.0415000235 -3.7463746050 2.3034326369
H -1.6723050649 -2.8613845490 1.2328392906
N -0.3504078399 -0.2296955882 1.8774036830
C -0.4632660757 -1.4948334233 2.3423100114
C -0.5112176563 -1.7759263529 3.7057811178
C -0.4339087195 -0.7399878696 4.6416686989
C -0.3255537118 0.5713754366 4.1521936435
C -0.2855762062 0.7728921186 2.7824630553
H -0.5968908948 -2.7948941739 4.0631318972
H -0.2012127065 1.7749055566 2.3711264246
H -0.2883001418 1.4121702521 4.8364288684
C -0.4541954414 -1.0470666761 6.1195234618
O -0.2926842347 -2.4344074407 6.2784639843
C -1.7606342505 -0.5324068187 6.8463141010
N -2.9451032024 -0.8056221272 6.0566068328
O -1.8820501489 -1.2635242461 8.0590566918
N -1.5666860562 0.8762809023 7.1194930823
H 0.3829750954 -0.5031711337 6.5871743029
H -0.3758933984 -2.6056766428 7.2331465902
H -3.7726556090 -0.5905675226 6.6137399344
H -2.9742402263 -0.2058850567 5.2349143079
H -2.4148253499 -2.0564951548 7.8681558085
H -2.4126756596 1.2524783864 7.5491112273
H -0.8269926532 0.9953202419 7.8135801225
C 1.3288307961 -5.6090104053 -0.0861995157
O 1.8337461056 -5.5027403672 -1.3979632714
C 0.4439784224 -6.9243869162 0.0224008134
N -0.6936458139 -6.9641615628 -0.8497161606
O 1.3835277011 -7.9014085281 -0.4219876485
N -0.0165825913 -7.0835891854 1.3791836842
H 2.1471044406 -5.7695286147 0.6405960807
H 2.2086683906 -6.3809702239 -1.6014512544
H -1.4735107923 -6.4056101773 -0.5167171120
H -0.4451761531 -6.7025927520 -1.7997636496
H 0.8848662290 -8.7012332638 -0.6676251374
H -0.6598667099 -7.8738134212 1.4303021465
H 0.7739995602 -7.3051761889 1.9823381712
O -2.2136679194 0.1400169775 -0.4258337510
C -2.7500535349 0.0321806941 -1.7948414638
C -3.5808027214 1.3277647828 -2.0234960060
C -3.6524775737 1.9203332626 -0.6315484233
C -2.8809986037 1.2094946391 0.1870989723
H -2.6616075446 1.3328152299 1.2368918116
H -4.5752414843 1.1039530529 -2.4188761967
H -3.0951068603 2.0118736238 -2.7330451509
H -3.4116787300 -0.8403602054 -1.7794645214
N -0.3586351905 -0.2528892340 -2.3332952224
C -1.6274844855 -0.2050388990 -2.7857266055
C -1.9376049260 -0.3579473660 -4.1347343797
C -0.9163874379 -0.5501241998 -5.0697945594
C 0.4031925925 -0.5999806904 -4.5917753815
C 0.6322469450 -0.4501879485 -3.2329369439
H -2.9639362056 -0.3153772706 -4.4809387767
H 1.6429640234 -0.4766187702 -2.8338651512
H 1.2280905510 -0.7674840866 -5.2763417242
C -1.2451603790 -0.6690590502 -6.5391809281
O -2.6088473909 -0.3721162856 -6.7063283984
C -0.8819089258 -2.0776724343 -7.1576738061
N -1.2465792178 -3.1586514321 -6.2622146671
O -1.6554384508 -2.2295770193 -8.3424943905
N 0.5299277958 -2.0506152867 -7.4741983070
H -0.6212196707 0.0631003285 -7.0787537914
H -2.8031520512 -0.5419357817 -7.6451275177
H -1.1135029105 -4.0472897301 -6.7463614355
H -0.6313685569 -3.1683594205 -5.4514513430
H -2.4843623262 -2.6762261942 -8.0927824944
H 0.8107094518 -2.9617167101 -7.8381973811
H 0.7054113183 -1.3832240578 -8.2268408229
C -4.4139001463 3.1543551562 -0.2620263376
O -3.8393050860 3.7178693918 0.9311647681
C -5.9439003080 2.9130595273 0.0018530277
N -6.2704147660 1.9184564397 0.9902053732
O -6.3376273181 4.1895083714 0.5228797905
N -6.5653691795 2.5291056518 -1.2372608660
H -4.3418367891 3.8841359565 -1.0833141861
H -4.5585267036 4.2966740281 1.2706489614
H -6.1237143235 0.9756459761 0.6403496405
H -5.7246123488 2.0503772497 1.8377898131
H -7.1964949311 4.0675851219 0.9669201845
H -7.5231316258 2.2259231448 -1.0620827111
H -6.6093984035 3.3250223306 -1.8709899445
