139
# extracted from Terachem optimization
Fe -0.0130203524 -0.2150426780 -0.0560557579
N 0.2785708772 1.7778602774 -0.1897001031
C 1.5187554359 2.1442292231 -0.0571440613
N 1.7598199756 3.4698655395 -0.0355442264
C 0.5006614820 4.1904285636 -0.3582986975
C -0.5234619458 3.0083439163 -0.3381606162
H -1.2215854571 3.0796334065 0.5051755371
H -1.1206192915 2.9613766499 -1.2533392289
H 0.5719673686 4.6301089058 -1.3583747980
H 2.6776834365 3.8529563607 -0.2194763774
N 2.0384388105 -0.1357197242 0.1241317014
C 2.5137084719 1.0736851192 0.1115114013
O 3.7682803547 1.4504441957 0.2755340357
C 4.8678352842 0.4377457198 0.2807140798
C 4.2805289573 -0.9235224920 0.5105426939
C 2.9678068063 -1.1624170842 0.4002731033
H 5.5164996692 0.7441691885 1.1051352889
H 2.5250935033 -2.1389662590 0.5515167852
H 4.9627178406 -1.7258259759 0.7688168919
C 5.6679801341 0.6265250392 -1.0390395554
N 5.0719088434 0.0631004318 -2.2424752093
C 7.1577537989 0.1913223014 -0.9110797193
N 7.7355032906 0.8656824383 0.2601479626
C 7.3900018281 -1.3186013871 -0.7955305002
H 5.6948779490 1.7155338198 -1.1821553258
H 4.8112876484 -0.9119938976 -2.1182387939
H 4.2520693263 0.5798770851 -2.5484450710
H 7.6093186550 0.5121323837 -1.8623136901
H 8.6407860528 0.4595097559 0.4900024808
H 7.9138804379 1.8480298137 0.0539324222
H 6.8755693907 -1.8672260722 -1.5905716779
H 8.4586186512 -1.5359474261 -0.8991604463
H 7.0748017345 -1.7082390129 0.1788614681
C 0.2569398733 5.3576049303 0.6424301212
N -0.0186929839 4.9856666901 2.0203633506
C -0.7919626086 6.3802761404 0.1301688741
N -0.3476469393 6.8714030835 -1.1828856979
C -2.2149106404 5.8279943812 -0.0068706662
H 1.2092258825 5.9081639454 0.6691101330
H -0.9014619032 4.4966605924 2.1373112319
H 0.7274780135 4.4246606803 2.4220614317
H -0.8176054844 7.1663227394 0.9003656067
H -1.0789812814 7.4392493917 -1.6079345803
H 0.4547586810 7.4910446736 -1.0717979509
H -2.5802151745 5.4000321343 0.9331915910
H -2.9053877803 6.6366567220 -0.2705942906
H -2.2776176777 5.0739067051 -0.7998990050
N -0.1677710925 -2.2194718741 0.2018475957
C -0.2550673918 -2.5797851871 1.4475648281
N -0.2336593502 -3.9035061443 1.6994599087
C -0.2858594726 -4.6372330963 0.4078889533
C -0.1024491014 -3.4566411397 -0.6024432290
H 0.8674397804 -3.4941051960 -1.1130000563
H -0.8784466332 -3.4503671818 -1.3726733445
H -1.2672266811 -5.1059290400 0.2835799774
H -0.5718111098 -4.2920868856 2.5699450621
N -0.2388571201 -0.2974878984 1.9885089627
C -0.3166237951 -1.5072268021 2.4521094501
O -0.4158914697 -1.8839445940 3.7144249157
C -0.7160897306 -0.8799066852 4.7838132187
C -0.4315021103 0.4954844966 4.2540378011
C -0.2385044154 0.7350391066 2.9508522804
H -0.0401873740 -1.1405117480 5.6011104490
H -0.0395048892 1.7211655742 2.5503663730
H -0.3842753416 1.3057068308 4.9723476343
C -2.1676094305 -1.1595652641 5.2593887142
N -3.2280817995 -0.7570026570 4.3455387392
C -2.4589735951 -0.6400930829 6.6989912481
N -1.3900032182 -1.1157179195 7.5889974941
C -2.5973871192 0.8793141503 6.8311257785
H -2.2138475278 -2.2550673086 5.3289653597
H -3.1242057521 0.2058638292 4.0357115470
H -3.2785158501 -1.3556609078 3.5261770509
H -3.4444748621 -1.0690270380 6.9381312431
H -1.4467691049 -0.6424211599 8.4890680095
H -1.5081198371 -2.1086063825 7.7885367724
H -3.3004733123 1.2823152636 6.0959590376
H -2.9933911355 1.1284208849 7.8217622466
H -1.6332935370 1.3893452442 6.7318262094
C 0.7773450627 -5.7721503736 0.3799645455
N 2.1705312321 -5.3572565593 0.4163418738
C 0.5444931640 -6.7981194290 -0.7623108976
N -0.8334359617 -7.3019105158 -0.6536070752
C 0.7622123710 -6.2476489778 -2.1752572376
H 0.6097882606 -6.3330583011 1.3114737932
H 2.4480453154 -4.8124151265 -0.3952648194
H 2.3916073843 -4.8331088492 1.2586230805
H 1.3032851497 -7.5780175727 -0.5959065721
H -1.0656134359 -7.8590280121 -1.4744946284
H -0.9121582575 -7.9365075124 0.1409096319
H 1.7549406885 -5.7997129309 -2.2894527968
H 0.6988532175 -7.0626616872 -2.9049065103
H -0.0028417168 -5.5095798233 -2.4436951026
N -2.0001683234 -0.0241453477 -0.3510090399
C -2.3499753599 -0.0771781463 -1.6004270046
N -3.6590322040 0.1224523320 -1.8735495653
C -4.4040754152 0.0867339927 -0.5852897481
C -3.2264429753 0.2416537288 0.4250592853
H -3.1697846641 1.2592447082 0.8337907578
H -3.3061913075 -0.4509702492 1.2655994455
H -4.8871245409 -0.8891049957 -0.4637839599
H -4.0676116555 -0.2140318932 -2.7366708842
N -0.0802557180 -0.3995238978 -2.0947138280
C -1.2770710362 -0.2867724421 -2.5834357271
O -1.6389572320 -0.3774943180 -3.8516124760
C -0.6042238733 -0.3255726483 -4.9328553121
C 0.7293149149 -0.6905235781 -4.3430097899
C 0.9434658743 -0.6914650219 -3.0214292532
H -0.6258808769 0.7049077150 -5.3079666963
H 1.9021377781 -0.9221792708 -2.5739772289
H 1.5406509623 -0.9173133009 -5.0258942502
C -1.1326415268 -1.2465033565 -6.0623893567
N -0.9031622366 -2.6731661953 -5.9058530059
C -0.6855607583 -0.7668883655 -7.4735042239
N -1.1253678144 0.6262381223 -7.6413513067
C 0.8197680734 -0.8547298565 -7.7444565688
H -2.2213417387 -1.1016348910 -6.0402268257
H 0.0852860411 -2.9044502951 -5.8475288035
H -1.3609861171 -3.0432180031 -5.0772592554
H -1.1830067337 -1.4638384792 -8.1644348163
H -0.6900392823 1.0322252794 -8.4679418856
H -2.1301972441 0.6598023014 -7.8105782930
H 1.2144399011 -1.8556114916 -7.5398414921
H 1.0195364196 -0.6509013115 -8.8021954250
H 1.3830420609 -0.1160178832 -7.1621591232
C -5.5241541099 1.1646092111 -0.5582876719
N -5.0933516781 2.5520366144 -0.6096333929
C -6.5463205243 0.9562628577 0.5919575859
N -7.0551136320 -0.4226405386 0.5157587771
C -5.9958984803 1.2045067398 2.0000751888
H -6.0927913649 0.9938997112 -1.4849238126
H -4.5511098244 2.8273993008 0.2048713679
H -4.5404206698 2.7428528836 -1.4413068586
H -7.3252223910 1.7127794877 0.4110760531
H -7.6141650674 -0.6311790508 1.3417494006
H -7.6901682805 -0.5167202924 -0.2768362399
H -5.5382461471 2.1952192583 2.0900908346
H -6.8133948537 1.1696513982 2.7287195764
H -5.2698440782 0.4381183128 2.2957410195
