178
# extracted from Terachem optimization
Fe -0.3508065821 -0.0086019861 0.0486044266
O -0.1708506928 2.1088351813 -0.0307723888
C 1.0992539332 2.5321607318 -0.6069363300
C 1.4323882112 3.8027258856 0.1246920078
C 0.4380704392 4.1834383429 0.9341425749
C -0.6851615821 3.1824939948 0.8514525354
H -0.9384655320 2.7550587597 1.8196545592
H -1.5945821482 3.5868807428 0.3938946805
H 2.3543865070 4.3372852658 -0.0646475303
H 0.9348693764 2.7149280685 -1.6825932165
N 1.6826914871 0.1896781615 -0.1928603579
C 2.0927031212 1.4071930473 -0.4751309497
C 3.5134739741 1.4938678040 -0.6488035205
C 4.0398638109 0.2486534408 -0.4396552981
C 2.8791034583 -0.6679126199 -0.1450980885
H 2.9552600212 -1.1363978007 0.8428470904
H 2.8060839295 -1.4918789251 -0.8666627970
H 4.0512977088 2.4034572850 -0.8772783754
C 5.5040584568 -0.1424776270 -0.4359158356
C 6.3717611953 1.1355816895 -0.5082246843
C 5.8084642433 -0.8434480671 0.9170591086
C 5.8253602002 -1.1182105954 -1.6680926953
N 5.2150419418 -2.4471531245 -1.3934544071
C 5.2012346233 -0.6001157657 -2.9772259530
C 7.3498825959 -1.2601172038 -1.8720931024
H 6.0901337977 1.8336415035 0.2866204586
H 7.4255387674 0.8937265449 -0.3608533864
H 6.2803236350 1.6535868808 -1.4678108820
H 5.2189731584 -1.7530520555 1.0553330380
H 6.8679838611 -1.1060951422 0.9797073731
H 5.5961671425 -0.1674237211 1.7524064716
H 5.2679111645 -2.9866917554 -2.2589274328
H 5.8150176130 -2.9546660772 -0.7412594759
H 5.4919598293 0.4333721706 -3.1851892359
H 5.5549092680 -1.2058750904 -3.8194639105
H 4.1068930226 -0.6593982028 -2.9629660561
H 7.8164108830 -0.3375962395 -2.2269900326
H 7.8653115013 -1.5724720357 -0.9576514696
H 7.5359884044 -2.0282458577 -2.6307478995
C 0.3333784597 5.4576212782 1.7682700052
C 1.5343584430 6.3772902413 1.4638892610
C -0.9485919065 6.2095291860 1.3162204361
C 0.2567242542 5.0817521625 3.3210833083
N -0.9392827126 4.2332943243 3.5309558817
C 1.4825729868 4.2575955026 3.7510396918
C 0.1705780131 6.3429871781 4.2102278178
H 1.5602473189 6.6249988792 0.3976463008
H 1.4508481490 7.3212411645 2.0067819424
H 2.4954334104 5.9256237767 1.7276180800
H -1.8667648544 5.6551073195 1.5343889130
H -1.0129627598 7.1852156129 1.8040419352
H -0.9162087948 6.3930072251 0.2365386470
H -0.8604832933 3.6719813566 4.3817156307
H -1.7793962489 4.8027699301 3.6192247413
H 2.4120881081 4.8140224587 3.6116992444
H 1.4125935983 4.0116673764 4.8163843821
H 1.5590647193 3.3207368369 3.1879592261
H 1.0620769819 6.9731725248 4.1424062813
H -0.6997311573 6.9582988249 3.9627392695
H 0.0685331241 6.0353105447 5.2563885706
O -0.8359609918 -2.0915769337 0.2133360082
C -1.2925366858 -2.5251119301 1.5213134709
C -0.6480062999 -3.8738223689 1.7035379431
C -0.0122930631 -4.2676620493 0.5943832044
C -0.1815889121 -3.2169780689 -0.4742122897
H 0.7711108802 -2.8956179364 -0.8927171872
H -0.8469600182 -3.5353489622 -1.2851749548
H -0.7473501747 -4.4285151930 2.6275911852
H -2.3937084205 -2.5854811926 1.4976623596
N -0.5440947729 -0.2699181556 2.1229752353
C -0.9061729087 -1.4716719110 2.5195858329
C -0.8681629842 -1.6409575427 3.9425210750
C -0.4190219663 -0.4745135325 4.4921666016
C -0.1988079471 0.4811379961 3.3460229450
H 0.8402795788 0.8250369517 3.2811030922
H -0.8157767410 1.3812451645 3.4619374941
H -1.1255760011 -2.5544432434 4.4603654288
C -0.1430006145 -0.1964776524 5.9567403179
C -0.0994711037 -1.5398979346 6.7231930287
C 1.2582084176 0.4583093867 6.0750338790
C -1.2768158765 0.7634553730 6.5684771928
N -1.0684084734 2.1425443300 6.0461955718
C -2.6862019968 0.3261388110 6.1326662338
C -1.2187326696 0.7658629963 8.1121679107
H 0.5955898710 -2.2342857732 6.2398777659
H 0.2584709007 -1.3890809227 7.7432438689
H -1.0782497160 -2.0255674742 6.7857591460
H 1.3268717181 1.4027247214 5.5286664955
H 1.5049802129 0.6492259775 7.1232839517
H 2.0273957273 -0.2184065046 5.6866606488
H -1.8963819329 2.6857250931 6.2984121001
H -0.3098606396 2.5777547376 6.5738509011
H -2.8781167613 -0.7243981289 6.3674478902
H -3.4408652964 0.9144576423 6.6667621700
H -2.8473953219 0.4753315997 5.0593044763
H -1.5145355244 -0.1926016501 8.5460128666
H -0.2234953645 1.0195725409 8.4928073037
H -1.9171164062 1.5206363760 8.4898185500
C 0.7466637170 -5.5660087328 0.3406680635
C 0.4765789299 -6.5613332682 1.4888536894
C 0.1801513000 -6.1959979464 -0.9600066310
C 2.3083684192 -5.2503993523 0.1919435049
N 2.4940783156 -4.3627080307 -0.9881294289
C 2.8412745573 -4.4830213850 1.4157637240
C 3.1357281096 -6.5428713686 0.0284287268
H -0.5996637617 -6.7310491610 1.5965750105
H 0.9322306315 -7.5308345800 1.2757891435
H 0.8611233335 -6.2181867728 2.4538101262
H 0.3565742052 -5.5754680992 -1.8445162035
H 0.6202008023 -7.1797375914 -1.1435881112
H -0.9013386021 -6.3449663035 -0.8678538762
H 3.4061169215 -3.9043244722 -0.9399684641
H 2.5074574559 -4.9255370836 -1.8385847569
H 2.6783614948 -5.0334229176 2.3452770398
H 3.9228088175 -4.3326330362 1.3189499665
H 2.3661417551 -3.5009809186 1.5135278054
H 3.1107051291 -7.1808415618 0.9167144927
H 2.8033925887 -7.1420825216 -0.8255755934
H 4.1831432988 -6.2743812226 -0.1483418705
O -2.5584228931 0.0502426286 -0.1228375713
C -3.0323754584 -0.5089475357 -1.3798655625
C -4.2587742531 0.2932986928 -1.7071168120
C -4.5384212997 1.1837982047 -0.7509817268
C -3.5127144331 1.0668099906 0.3490780588
H -2.9831521603 2.0006046925 0.5273869184
H -3.9318413951 0.7018458518 1.2926589054
H -4.8313492031 0.1097082781 -2.6071229451
H -3.2636726561 -1.5730191226 -1.2075613944
N -0.6743173644 -0.2652822911 -1.9758920254
C -1.9130923987 -0.4453558024 -2.3846771878
C -2.0185664374 -0.5965713523 -3.8064444584
C -0.7567548531 -0.5010243511 -4.3303646139
C 0.1779453434 -0.3022486101 -3.1693099385
H 0.7608680514 0.6217458500 -3.2542974315
H 0.9108301519 -1.1211817905 -3.1407750248
H -2.9442133622 -0.7424082031 -4.3461677277
C -0.3301287531 -0.5695564657 -5.7768868225
C -1.5734672476 -0.4979797478 -6.6915569565
C 0.5423517407 0.6788787710 -6.0840305715
C 0.5050181896 -1.9235532041 -6.0177505901
N 1.7649330690 -1.8328767997 -5.2377861713
C -0.2594934798 -3.1536152291 -5.4948814397
C 0.7987220928 -2.1246365470 -7.5197341761
H -2.1622525011 0.3951069314 -6.4576678496
H -1.2771320430 -0.4176253188 -7.7392070667
H -2.2293218889 -1.3690794662 -6.5990610596
H 1.4590103961 0.7138332427 -5.4881123645
H 0.8209639823 0.6999245428 -7.1407071721
H -0.0248334694 1.5948288585 -5.8855266934
H 2.1803416520 -2.7637548482 -5.1979444150
H 2.4404314234 -1.2625118200 -5.7468265802
H -1.2522995880 -3.2355659667 -5.9435044742
H 0.2861271642 -4.0679276017 -5.7540189563
H -0.3741452532 -3.1304946460 -4.4052493813
H -0.1067526554 -2.2931365510 -8.1085348296
H 1.3367826532 -1.2763838329 -7.9554332443
H 1.4323389883 -3.0101848855 -7.6405215873
C -5.7119035510 2.1567652095 -0.6846405198
C -6.7678111684 1.7597957594 -1.7404188729
C -6.3767348221 2.0045385401 0.7090382511
C -5.2029588281 3.6528920001 -0.9250386307
N -4.3463433520 4.0561387311 0.2276483386
C -4.3144633471 3.7572775238 -2.1778590629
C -6.3905162127 4.6279346435 -1.0847481819
H -7.0435197583 0.7070893933 -1.6219640409
H -7.6801596175 2.3459985632 -1.6141287052
H -6.4208059207 1.9049397493 -2.7682099130
H -5.6983300711 2.2439010771 1.5341900245
H -7.2561242260 2.6483435042 0.7980917153
H -6.7211518828 0.9744216852 0.8505753586
H -3.9759705021 4.9844780650 0.0172593961
H -4.9364262893 4.1989233791 1.0482925445
H -4.8326485317 3.4092657917 -3.0753862136
H -4.0397397900 4.8039986462 -2.3534978345
H -3.3918990166 3.1791730726 -2.0641848626
H -6.9561371001 4.4477437526 -2.0026399951
H -7.0873814767 4.5802448329 -0.2415654587
H -6.0094461938 5.6540995175 -1.1374983505
