112
# extracted from Terachem optimization
Fe 0.4647798078 0.1199255389 0.0906038446
O 0.4867681809 2.2946999962 0.6454237264
C 1.7572607362 2.9564837330 0.5586782886
N 2.1669073815 3.2950827705 1.9063858391
C 1.3599973969 4.4053587722 2.4229667371
C -0.0870986179 4.1220383858 2.0830916146
C -0.4472037390 3.0993739847 1.3053483861
H 1.4549736441 4.4268231912 3.5152309393
H 3.1614338490 3.5022438896 1.9540768891
H -1.4582478880 2.7918058180 1.0697788675
H -0.8436096140 4.7474441052 2.5388600394
H 1.5962420085 3.8376131831 -0.0783875719
N 2.4679991737 0.7606307216 -0.2508294913
C 2.7491307820 2.0294601423 -0.1096569230
N 3.9147388929 2.5918481141 -0.4792288173
C 4.8452575450 1.9101038795 -1.4025574383
C 4.6456069398 0.4244142406 -1.2521280215
C 3.5125459223 -0.0629219400 -0.7367803393
H 5.8661678801 2.1964987727 -1.1335393090
H 4.0041810447 3.6033591952 -0.4148556121
H 3.3332477466 -1.1260692765 -0.6220466191
H 5.4332038376 -0.2337892558 -1.6013010275
C 4.5073394480 2.4074084049 -2.8419153865
O 3.5510721251 1.9604914340 -3.4354534611
C 5.3477460527 3.5472638235 -3.4113439313
N 5.5849856460 4.5555349155 -2.4333887604
Cl 6.8809231664 2.7190037178 -4.0688863100
H 4.8360619280 3.9581486981 -4.2805980596
H 6.3612168571 4.3269928335 -1.8161018996
H 5.7874250802 5.4571649274 -2.8584971391
C 1.8859417049 5.7691601298 1.8900596869
O 2.6413887815 5.8098829243 0.9384195749
C 1.5225253430 7.0562156538 2.6463237815
N 0.1255811796 7.0912361423 3.0308524680
Cl 2.5515987467 7.0216131457 4.1442685548
H 1.8881185355 7.9057708336 2.0588656018
H -0.0036341683 7.7160860460 3.8250369721
H -0.4223829041 7.4777119580 2.2612875034
O 0.5324865487 -2.1597297485 -0.2775239497
C 0.8452745224 -2.9116255980 0.8962156128
N 2.1913674966 -3.4371746578 0.7499455619
C 2.1967257040 -4.5342204370 -0.2214400864
C 1.4080775533 -4.0720003888 -1.4274653460
C 0.7123779235 -2.9324993915 -1.4291647687
H 3.2294959225 -4.7184701404 -0.5403984045
H 2.5775771838 -3.7289858780 1.6442674847
H 0.1950776571 -2.5147961556 -2.2841419295
H 1.4747342285 -4.6617054024 -2.3323892042
H 0.0799926967 -3.6970087757 0.9632726824
N 0.7156019957 -0.7238853790 2.0007280732
C 0.7509442643 -2.0253358923 2.1168820134
N 0.7883688377 -2.6782528739 3.2910903177
C 0.4966059028 -2.0254166649 4.5755330476
C 0.7828841114 -0.5489366414 4.4169596352
C 0.8339689833 0.0132242786 3.2046650067
H 1.1461416802 -2.4601718384 5.3422274427
H 0.7679909382 -3.6940421782 3.2598101783
H 1.0239687822 1.0708881036 3.0620212288
H 0.9047303427 0.0401923971 5.3176998019
C -1.0023970172 -2.2489749331 4.9402528630
O -1.8573425644 -2.0618558080 4.1019226926
C -1.3682951082 -2.7158656410 6.3452077635
N -0.7675058865 -3.9433408925 6.6688418233
Cl -0.8990085488 -1.2563743539 7.4634793263
H -2.4520925798 -2.7790535302 6.4191574256
H 0.2331073543 -3.8962711459 6.8374194510
H -1.2141034947 -4.4143634621 7.4504868631
C 1.6754205848 -5.8476112282 0.4300666745
O 1.0810636790 -5.8187393960 1.4910862874
C 2.0114289378 -7.1919628048 -0.2317341182
N 1.9168272607 -7.1349244575 -1.6754966166
Cl 3.7389124359 -7.5112172175 0.2366917611
H 1.4251645323 -7.9714473259 0.2678746744
H 2.4917676131 -7.8642507113 -2.0940158452
H 0.9536446429 -7.3223029283 -1.9565101377
O -1.8977119860 0.0735409917 0.3890823271
C -2.6290815309 0.3579287652 -0.8017523632
N -3.2872655870 1.6413307298 -0.6287543582
C -4.4134530148 1.5058971209 0.3007034810
C -3.9287823484 0.7035761139 1.4895481375
C -2.7304884148 0.1134491251 1.5070544533
H -4.6974730762 2.5045041054 0.6541567347
H -3.5886014171 2.0301634490 -1.5187879933
H -2.2987700796 -0.4119441442 2.3498311167
H -4.5586960516 0.6697264902 2.3688936936
H -3.3401606403 -0.4708619722 -0.9292961563
N -0.3924147994 0.3899872989 -1.8131689637
C -1.6885586466 0.3705231684 -1.9860460215
N -2.2926386610 0.4043164557 -3.1877252345
C -1.5691984084 0.1457873280 -4.4480361599
C -0.1091712053 0.4355064226 -4.2194516330
C 0.3975546936 0.5108383398 -2.9854928907
H -1.9783065380 0.8016885393 -5.2229087650
H -3.3043357156 0.2956847005 -3.2130259035
H 1.4499015041 0.6989000955 -2.8108799155
H 0.5293405395 0.5484829888 -5.0883445879
C -1.8063231774 -1.3481518000 -4.8255691281
O -1.2524454684 -2.2289415100 -4.2044881821
C -2.8200285515 -1.6565228082 -5.9200971284
N -4.0227943751 -0.9236532213 -5.7284562713
Cl -1.9160539273 -1.2900726790 -7.5116433030
H -3.0112537048 -2.7285628101 -5.9276494387
H -3.9644440480 0.0327555701 -6.0701958934
H -4.8192706311 -1.3670034593 -6.1792682519
C -5.6533868431 0.9044597962 -0.4188979441
O -5.5378267754 0.3597758284 -1.5004752089
C -7.0436502853 1.0963018527 0.2036987766
N -7.0333226844 0.9248039318 1.6410191160
Cl -7.4854551860 2.8185287280 -0.1809433288
H -7.7545750403 0.4822569841 -0.3606857916
H -7.8508746455 1.3732266462 2.0516845750
H -7.1034356561 -0.0700106602 1.8596623046
