148
# extracted from Terachem optimization
Fe 0.2944829615 -0.0200845148 0.1203367163
O 0.5275656851 2.0082116080 -0.3088183093
C 1.9174217198 2.2253969297 -0.7823731549
O 2.1751832273 3.5401469829 -1.0359065682
C 2.0723992968 4.4546700251 0.1025851626
C 0.7885761288 4.1410449987 0.8058281289
C 0.1007260574 3.0266040763 0.5680048792
H 2.9496391464 4.2959498488 0.7411802752
H -0.8696120685 2.7989948473 0.9812786376
H 0.3698819598 4.8619272255 1.4964638682
H 1.9730670870 1.7014432079 -1.7372272542
O 2.3116262241 0.1023549188 0.2630590619
C 2.8358037046 1.5450772167 0.2395423403
N 4.1811512929 1.6177122779 -0.1003405906
C 5.1001546357 0.8821722160 0.8031072347
C 4.4431035513 -0.3943491583 1.2684867840
C 3.1778947526 -0.7164567864 1.0012790353
H 5.3201090014 1.5233869990 1.6666063825
H 4.3686871455 1.3379380776 -1.0633589492
H 2.7056930056 -1.6453713689 1.2918989687
H 5.0076554975 -1.0983250565 1.8672182195
H 2.6726673372 1.8932199319 1.2616869613
C 6.4129275753 0.7263871302 -0.0045681841
O 6.0634571530 -0.0631009470 -1.1324882850
C 7.6733027498 0.2038105300 0.7406220877
C 8.0712796025 1.1176520864 1.8982403127
C 7.6408621511 -1.2702313624 1.1428036165
Cl 9.0059005875 0.3601962582 -0.5580632758
H 6.6625409261 1.7498439537 -0.3227719363
H 6.8439966785 -0.0913484355 -1.7152299264
H 7.3602707264 1.0121724891 2.7273555245
H 9.0599031577 0.8442480774 2.2755121607
H 8.1038824836 2.1682534830 1.5935236711
H 7.2391571089 -1.8936138472 0.3404336141
H 8.6494062202 -1.6146756691 1.3825374559
H 7.0322346070 -1.4065408668 2.0438735179
C 2.2390787924 5.8523924021 -0.5572307982
O 3.5077196918 5.8490794165 -1.1896891041
C 2.2510723763 7.0867780998 0.3874649240
C 3.1440240608 6.9038224219 1.6142585204
C 2.6351482589 8.3395666834 -0.4042086439
Cl 0.5104488059 7.3608413597 0.9743760143
H 1.4280524168 5.9825549121 -1.2870336644
H 3.4892831767 5.1819894575 -1.8938080265
H 4.1643792394 6.6792980445 1.2841833746
H 3.1676506352 7.8228447669 2.2051403094
H 2.7969607422 6.0970419021 2.2676625807
H 1.9942194078 8.4662021576 -1.2813379083
H 2.5312852553 9.2233611453 0.2301900914
H 3.6720563350 8.2605213414 -0.7392916882
O -0.1151474020 -2.0316309747 0.3118943707
C -0.8803979758 -2.2994632043 1.5487657339
O -1.0362642660 -3.6377145839 1.7674384219
C 0.1808486189 -4.4320052546 1.9301959918
C 1.0936647849 -4.0668127804 0.7977578744
C 0.8965562995 -2.9768578408 0.0592192901
H 0.6118072603 -4.2017651295 2.9120119051
H 1.4654425315 -2.7073771471 -0.8205577025
H 1.9018896314 -4.7344352999 0.5287465808
H -1.8722192900 -1.8923932151 1.3498524704
O -0.0234597287 -0.1044849221 2.1098802866
C -0.2260182059 -1.5096733330 2.6915220379
N -1.0290178302 -1.4962729455 3.8277899391
C -0.5369196537 -0.6637699377 4.9531823510
C 0.1530855679 0.5654878926 4.4155756051
C 0.3512007849 0.7929375207 3.1177861840
H 0.1643910778 -1.2624588448 5.5483395133
H -1.9883985597 -1.2200367968 3.6180033902
H 0.8007456459 1.6904571252 2.7135736213
H 0.5142560099 1.3188888916 5.1040991077
H 0.7896525012 -1.8363355389 2.9267304326
C -1.7929644477 -0.3965568417 5.8246150916
O -2.6575892665 0.3674009157 4.9930947850
C -1.5881357136 0.2305196567 7.2311169218
C -0.7339503794 -0.6577696562 8.1337300060
C -1.1296999798 1.6883128024 7.2425294199
Cl -3.3162795554 0.2181897955 7.9380983351
H -2.2255988037 -1.3922040413 6.0033360479
H -3.5019990611 0.4611236243 5.4706667511
H 0.3097260179 -0.6527589114 7.7952437378
H -0.7497330742 -0.2815077249 9.1596943106
H -1.0951895820 -1.6905467117 8.1446661173
H -1.6693130377 2.2802479984 6.4994749699
H -1.2975996461 2.1269967643 8.2288172434
H -0.0538632691 1.7504475078 7.0420967513
C -0.3554896689 -5.8931407540 1.9865980445
O -1.3538210986 -5.9281356159 2.9905080771
C 0.6524574672 -7.0074415170 2.3924509533
C 1.4155810565 -6.6913555659 3.6779346866
C -0.0845021734 -8.3457103043 2.4959953168
Cl 1.8883161880 -7.2042856377 1.0209791997
H -0.7707146369 -6.1408220463 0.9991966521
H -2.0690058472 -5.3295845241 2.7234109263
H 0.6953284860 -6.4977374242 4.4800361895
H 2.0356640213 -7.5435292374 3.9670303004
H 2.0741711140 -5.8232323468 3.5729813969
H -0.6265613288 -8.5723030657 1.5734089789
H 0.6320136069 -9.1496225863 2.6822600454
H -0.8005089565 -8.3068186471 3.3203715754
O -1.7675431320 0.0077579226 -0.1169327252
C -2.1129864922 -0.4776781895 -1.4753575667
O -3.4306474502 -0.3004692523 -1.7696406911
C -3.9548464306 1.0662078597 -1.6832323297
C -3.5940519585 1.5712162912 -0.3178579467
C -2.6026580937 1.0241717213 0.3804649120
H -3.5031957129 1.6586270646 -2.4876403933
H -2.3658686780 1.2460493451 1.4133158376
H -4.1936725209 2.3423998223 0.1482920036
H -1.9319714476 -1.5530832455 -1.4267983892
O 0.2338529104 -0.2922455986 -1.8629095106
C -1.1093648819 0.1470615322 -2.4590132429
N -1.3043987225 -0.3112122650 -3.7582575568
C -0.2588835562 0.0869544448 -4.7314253326
C 1.0989337055 -0.1575426345 -4.1113723939
C 1.2662627803 -0.3540568397 -2.8033822902
H -0.4005535450 1.1494902416 -4.9647736578
H -1.4210627886 -1.3241252469 -3.8104416498
H 2.2063063391 -0.6065783389 -2.3287039699
H 1.9800332378 -0.2388926037 -4.7349996076
H -1.0750163283 1.2387960563 -2.4145548353
C -0.5517943857 -0.7392927800 -6.0075480564
O -0.2695202339 -2.0788777156 -5.6361262087
C 0.1490631900 -0.3009360085 -7.3250806206
C -0.2727970922 1.1042178935 -7.7514282898
C 1.6648634493 -0.4862167700 -7.3554723938
Cl -0.5560622564 -1.4805745322 -8.5840156156
H -1.6294156164 -0.6104988528 -6.1872663195
H -0.5351372492 -2.6489979152 -6.3801716485
H 0.1582880814 1.8538215126 -7.0760290488
H 0.0917908683 1.3211760307 -8.7588133810
H -1.3612291260 1.2166588430 -7.7531762623
H 1.9557555470 -1.4590596348 -6.9512140584
H 2.0338642157 -0.4126978124 -8.3812278722
H 2.1533430861 0.3085534418 -6.7787738650
C -5.4577984326 0.8793103422 -2.0277126423
O -5.5069186780 0.2959422437 -3.3191436758
C -6.3382983152 2.1576701649 -2.1250452968
C -5.6984671248 3.2713271364 -2.9521500847
C -7.7236904466 1.7864394584 -2.6596059943
Cl -6.6060751357 2.7960878408 -0.4005714393
H -5.8967272602 0.2135764861 -1.2715802090
H -5.1053353663 -0.5853074643 -3.2648813125
H -5.4771531188 2.8856150415 -3.9535693545
H -6.3879836828 4.1133605979 -3.0510191650
H -4.7740847573 3.6480200035 -2.5027650591
H -8.1719010951 0.9787369518 -2.0738629149
H -8.3843153471 2.6558653938 -2.6125826486
H -7.6399832801 1.4566886882 -3.6979745935
