148
# extracted from Terachem optimization
Mn -0.1927373702 -0.3279674007 -0.2281906116
N 0.0977382016 1.5894948461 -0.0217334792
C 1.3364565112 2.0198637652 -0.1304556529
N 1.4956297678 3.3249056360 -0.0182311404
C 0.2077969784 3.9691259623 0.3164383814
C -0.7807505347 2.7737965502 0.1796499552
H -1.3801406055 2.6517996039 1.0768502643
H -1.4456013309 2.8826422168 -0.6782229781
H 0.0070245222 4.7508211948 -0.4182798484
H 2.3893644117 3.7804631732 0.1357396867
O 1.8108352326 -0.2517265199 -0.5425475857
C 2.4513608075 1.0615468118 -0.4202908715
O 3.3462859389 1.0708440409 0.6176018049
C 4.5159428071 0.2460635273 0.3515521809
C 4.0040262038 -1.1903476069 0.1367419523
C 2.8384663957 -1.2829066076 -0.8492845994
H 5.0703082791 0.3116851437 1.2877255544
H 2.9227963877 1.2782019621 -1.3862003804
H 2.3180315199 -2.2364891925 -0.7760473285
H 3.1611108536 -1.0902641284 -1.8731925970
H 4.8012731744 -1.8374266466 -0.2405229423
H 3.6816904326 -1.5882732656 1.1046097464
C 5.4004116057 0.8892331318 -0.7745944787
O 5.1333928441 0.2278427367 -1.9813528054
O 5.0643024825 2.2495351496 -0.9206685673
C 6.9389428654 0.8048127257 -0.4638012287
O 7.1044412886 1.7261006324 0.6020444842
C 7.4618641158 -0.5808815707 -0.0983810932
O 7.5400362276 1.2819323727 -1.6505905078
H 5.7897163054 0.5863039603 -2.6125077790
H 5.7193101060 2.7552907434 -0.4004438076
H 8.0515308285 1.8988574732 0.7382243008
H 7.2552268990 -1.3008128341 -0.8954265133
H 8.5483028279 -0.5368093778 0.0498301099
H 7.0294662862 -0.9403476569 0.8388638746
H 8.4145257527 0.8766754754 -1.7713273581
C 0.3024389641 4.6087604400 1.7206508305
O 0.2459414658 3.5689549217 2.6692210086
O 1.5551282671 5.2531394345 1.7222511010
C -0.8245774176 5.6496459070 2.0272109868
O -0.5741732365 5.9144844200 3.4018804555
C -0.7652336306 6.9312355032 1.2014135601
O -2.0592906776 4.9770409579 1.8406041890
H -0.0305315044 3.9764099129 3.5125615852
H 1.6476961160 5.7274000188 2.5680366052
H -1.0944283648 6.6752638548 3.7098439040
H -0.9602096141 6.7370477781 0.1429123519
H -1.5353089663 7.6300846962 1.5544121589
H 0.2057019705 7.4192424807 1.2966974708
H -2.7610830627 5.6410276535 1.7342666524
N -0.3241996704 -2.2812870652 -0.1300782624
C -0.2198034813 -2.8931840092 1.0294424697
N -0.3682408569 -4.2106508228 0.9736254045
C -0.4428136792 -4.6634135893 -0.4302370543
C -0.6048570108 -3.3055261552 -1.1724207906
H 0.0863401542 -3.2063883766 -2.0064368156
H -1.6267088760 -3.1698726109 -1.5388316028
H -1.3197831731 -5.3011339518 -0.5502496292
H -0.0763209937 -4.8549136500 1.7003405810
O -0.1370907330 -0.7669469455 2.0455602056
C 0.0131310946 -2.1515451267 2.3271610233
O 1.3098859510 -2.4684969969 2.7647937847
C 1.6684314605 -1.8115844580 4.0386807863
C 1.4363676389 -0.3037891889 3.8637348486
C 0.0836310936 0.0412262880 3.2528652536
H 2.7368937985 -2.0155818243 4.1294029507
H -0.7288469902 -2.4407874622 3.0825800707
H 0.0515678871 1.0776863087 2.9174358084
H -0.7438885866 -0.1636597344 3.9352516451
H 1.5249032858 0.2137267254 4.8198034933
H 2.2228715770 0.0823507518 3.2066300645
C 0.9843002210 -2.5703172700 5.2035124899
O -0.3691696892 -2.1719531527 5.2643110539
O 1.1039516813 -3.9585236051 4.9495696149
C 1.6624659035 -2.3886194119 6.6141029841
O 2.9155861491 -3.0049057241 6.6203367177
C 1.8708630218 -0.9564715980 7.0960164528
O 0.7253762982 -3.0616572733 7.4448045134
H -0.7071370289 -2.5650881280 6.0951500216
H 1.2167547012 -4.0785612321 3.9926842209
H 2.7630122066 -3.9251738700 6.3350196752
H 0.9412507940 -0.3846758010 7.0384526954
H 2.1929139663 -0.9877655068 8.1420342234
H 2.6644614138 -0.4518785024 6.5385502559
H 1.0416905027 -3.0256122831 8.3630923030
C 0.8270970987 -5.4812459796 -0.7708999715
O 1.8917301661 -4.5748183730 -0.9391991849
O 1.0201370621 -6.3070464822 0.3537878544
C 0.6844569266 -6.3541040649 -2.0599535724
O 2.0220280917 -6.8125635183 -2.2244325920
C -0.2858717213 -7.5254783725 -1.9486849425
O 0.3010360152 -5.4562435420 -3.0814839708
H 2.5472881894 -5.0214713986 -1.5096119099
H 1.7822932841 -6.8862008281 0.1729881072
H 2.0688061626 -7.5228333256 -2.8859300533
H -1.3154472902 -7.1833447934 -1.8119315460
H -0.2591525854 -8.1133735253 -2.8758813431
H -0.0213561297 -8.1852924525 -1.1210571066
H 0.0253104704 -5.9618711124 -3.8646754591
N -2.1288111080 -0.0626392189 -0.3224997567
C -2.7470257040 0.1100405128 -1.4692818979
N -4.0567834084 0.2844036966 -1.3644248016
C -4.4645483099 0.3777595613 0.0512937481
C -3.1298413534 0.0290557356 0.7738678256
H -2.8342310675 0.7964879391 1.4881885186
H -3.1847927301 -0.9306276763 1.2944028810
H -5.2371414519 -0.3704668618 0.2379771609
H -4.6583962976 0.6482311676 -2.0947331066
O -0.6796087812 -0.2756188103 -2.5437608980
C -2.0329401290 0.0645895704 -2.8026759181
O -2.1539425392 1.3378432780 -3.3835717330
C -1.4940272078 1.4583136863 -4.6972802574
C -0.0374708784 0.9950285841 -4.5350629948
C 0.0937242315 -0.3258826539 -3.7848647766
H -1.5265655027 2.5320271966 -4.8905208645
H -2.4727147444 -0.7023676757 -3.4550613973
H 1.1207342524 -0.5099977041 -3.4681584004
H -0.2708656812 -1.1679294939 -4.3767601930
H 0.4460989954 0.8943936518 -5.5082351527
H 0.5002400691 1.7758048011 -3.9844073572
C -2.3818197975 0.7870002569 -5.7757485263
O -2.1435357671 -0.6033429746 -5.7476785481
O -3.7363461694 1.0777623573 -5.4816959286
C -2.1772455342 1.3472218824 -7.2342540896
O -2.6846434175 2.6462010991 -7.3096383683
C -0.7441846250 1.4022710144 -7.7532453500
O -2.9471717224 0.4210046194 -7.9890761168
H -2.5877109949 -0.9495253300 -6.5487651297
H -3.7860330366 1.3532023526 -4.5521734538
H -3.6080978191 2.5927646315 -6.9998634857
H -0.2622865318 0.4244625454 -7.6734835070
H -0.7706198454 1.6912147958 -8.8088297379
H -0.1526289450 2.1616227628 -7.2344561395
H -2.9052983590 0.6722771452 -8.9270354674
C -5.0416400359 1.7987427927 0.3105511481
O -3.9994097647 2.7472126044 0.2563008898
O -5.9240625795 1.9906275703 -0.7563260201
C -5.8153382062 1.9642259414 1.6621383093
O -6.4077842174 3.2454892952 1.5533444572
C -6.8639170501 0.8946645328 1.9483409209
O -4.7905861757 1.9857519316 2.6486570752
H -3.8752271680 3.1081057068 1.1542700585
H -6.3689787254 2.8441018935 -0.5929576533
H -7.2976642295 3.2390046189 1.9427456817
H -6.4052480579 -0.0785923574 2.1394082971
H -7.4286045081 1.1645916970 2.8497429850
H -7.5657214628 0.8046311565 1.1143814684
H -5.1826509236 2.2578077662 3.4962758760
