169
# extracted from Terachem optimization
Mn -0.0057918315 0.1505329009 0.0907449911
O -0.0102114257 2.3820505962 0.0849068505
C -1.2134938044 3.2310442481 -0.0483765399
O -1.3646169988 4.0180557688 1.0643681538
C -0.3588341694 5.0729652080 1.1356291234
C 0.9675025752 4.4628971287 0.7587173550
C 1.1026351464 3.2095444824 0.3244682298
H -0.6411160937 5.8532319085 0.4188406744
H 2.0293734968 2.7195975389 0.0590257339
H 1.8626579726 5.0710015499 0.8223492333
H -2.0502019408 2.5457137422 -0.1210217342
H -1.0607300321 3.8157348354 -0.9640889586
C -0.3850072190 5.7126632916 2.5743641175
N -0.1255463693 4.7502720168 3.6397663460
C 0.6913076968 6.8119587198 2.6147792748
C -1.8155798491 6.3220539720 2.8651545727
O -2.1615348907 7.0407555575 1.6964819809
O -2.7526747738 5.2846831675 3.1167240928
C -1.8511219446 7.2134509818 4.1070670994
H -0.9294886367 4.1329315916 3.7307871849
H 0.7132514816 4.2088384810 3.4464381556
H 0.5061266251 7.5841431684 1.8619204658
H 0.7046054686 7.2774381386 3.6006572101
H 1.6934922105 6.4011841229 2.4542737789
H -2.9068144202 7.6254741701 1.9134708321
H -3.1557121572 5.0248863895 2.2699467791
H -1.4622984665 6.6797821346 4.9770091024
H -1.2786306284 8.1313724164 3.9611156991
H -2.8959047666 7.4728231218 4.3070919470
O 2.0877064878 0.1805622209 0.0571302233
C 2.9702709262 0.2858664534 1.2513687858
O 3.7549092089 -0.8269824772 1.3477578502
C 4.8022645054 -0.8381688543 0.3357457982
C 4.1575067144 -0.4596880376 -0.9738507173
C 2.8963267583 -0.0400375323 -1.0797543164
H 5.5479666244 -0.0892447312 0.6300670973
H 2.3831517387 0.2329563310 -1.9892185049
H 4.7420727604 -0.5083610610 -1.8859495135
H 2.3041107378 0.3353540179 2.0998141647
H 3.5448376068 1.2078567378 1.1009359753
C 5.5280708824 -2.2317181777 0.3167710859
N 4.6853590011 -3.3410531953 -0.1103222390
C 6.7192269962 -2.0964892853 -0.6500583227
C 6.0260115053 -2.5918484310 1.7748810101
O 6.4903573655 -1.3778231963 2.3417106949
O 4.9279405158 -3.1032701900 2.5166071070
C 7.1141152672 -3.6659221802 1.7948985275
H 4.0075910678 -3.5479522675 0.6189176627
H 4.2171537020 -3.1471349716 -0.9914055446
H 7.4412236041 -1.3562427685 -0.2920614390
H 7.2194957886 -3.0600403940 -0.7533841621
H 6.3980783176 -1.8027112943 -1.6551702684
H 7.1434401086 -1.5910755432 3.0280875489
H 4.7208537289 -2.4756218577 3.2345579282
H 6.7711529860 -4.5641987181 1.2765166818
H 8.0455540916 -3.3205750137 1.3397152728
H 7.3042704350 -3.9358385994 2.8395592518
O -0.0136959276 -2.1065619112 0.1086578453
C -1.2189619399 -2.9367449263 -0.0536632996
O -1.1703507074 -3.6228502814 -1.2425882699
C -0.1696524514 -4.6879918941 -1.2392392436
C 1.0834033635 -4.1115675345 -0.6359357174
C 1.1364948000 -2.9120939564 -0.0538303550
H -0.5616712515 -5.5039868271 -0.6206618417
H 2.0175419583 -2.4470666550 0.3673241851
H 1.9927766566 -4.7028716610 -0.6437092393
H -2.0504767576 -2.2386820424 -0.0681794487
H -1.2486223799 -3.6053740173 0.8158018990
C -0.0004238382 -5.2528140481 -2.7050874696
N 0.5238151313 -4.3088662954 -3.6773714334
C 0.9627872897 -6.4514489723 -2.6079975682
C -1.4052519080 -5.7209990258 -3.2441059452
O -1.9799427376 -6.4715896668 -2.1959332236
O -2.2296788943 -4.5864512617 -3.5296063219
C -1.3393446596 -6.5111197701 -4.5466575292
H -0.1286080335 -3.5631623770 -3.9007172283
H 1.4339994211 -3.9396134394 -3.4220586132
H 0.5690189547 -7.2286767599 -1.9476284287
H 1.1213689737 -6.8764601389 -3.6000450500
H 1.9474882534 -6.1463070560 -2.2377601167
H -2.7842042530 -6.8966976638 -2.5381711636
H -2.3729481973 -4.1294087857 -2.6826933736
H -0.7564552247 -5.9736992383 -5.2972173460
H -0.8961649563 -7.4952911480 -4.3843826326
H -2.3593741784 -6.6428905128 -4.9229149598
O -2.1239595008 0.1381875019 0.1077381587
C -2.9593864261 0.3824549753 1.3086429235
O -3.7685403931 1.4662437716 1.1063436511
C -4.8439932522 1.2007825604 0.1508760068
C -4.2208200056 0.4845960365 -1.0159428695
C -2.9591251203 0.0515438377 -1.0343140364
H -5.5878227965 0.5729197656 0.6545726637
H -2.4568515288 -0.4083905145 -1.8747110969
H -4.8202695104 0.3050357104 -1.9018110512
H -2.2598339043 0.5900873935 2.1097151095
H -3.5208411867 -0.5459623816 1.4694834026
C -5.5410720478 2.5631938534 -0.2261288984
N -4.6860943732 3.5084376459 -0.9245474006
C -6.7516607257 2.2250213479 -1.1154689272
C -6.0138564869 3.2843424644 1.0948444285
O -6.6228280564 2.2747973606 1.8728025296
O -4.8909038538 3.8255293673 1.7935900352
C -6.9488002543 4.4667531437 0.8564009019
H -3.9695405720 3.8805066197 -0.3089705115
H -4.2793452174 3.1264829198 -1.7727989659
H -7.4848096653 1.6180875923 -0.5771558184
H -7.2279207133 3.1498877964 -1.4435855431
H -6.4558093461 1.6876019269 -2.0231201406
H -7.0829993621 2.7039453674 2.6136206062
H -4.3932214898 3.0609330949 2.1296793900
H -6.5115891272 5.1718140131 0.1465906487
H -7.9192748832 4.1346480435 0.4825838628
H -7.0969235130 4.9850342739 1.8097636959
O -0.0227123005 0.1510614525 2.2624519204
C 0.1368523792 -1.0593413767 3.0971044408
O 1.3123617632 -0.9976274921 3.8000126574
C 1.2872816401 0.0013327550 4.8656280395
C 0.6760517946 1.2477306948 4.2845231299
C 0.1158796380 1.3010068170 3.0741266805
H 0.6645262126 -0.3972001717 5.6753165354
H -0.3080580416 2.1783194969 2.6048790755
H 0.6573197607 2.1532605281 4.8817077061
H 0.1688761126 -1.8864561129 2.3959088263
H -0.7449870344 -1.0910993790 3.7488687404
C 2.7469342766 0.1831258859 5.4453750100
N 3.7242620923 0.7157785499 4.5126834580
C 2.6290405927 1.1428417392 6.6447893714
C 3.2926214873 -1.2192571586 5.9154319259
O 2.2398190384 -1.8052055913 6.6512066412
O 3.5984215845 -2.0379938605 4.7821334717
C 4.5844036104 -1.1437225101 6.7220627232
H 3.9605895437 0.0685796053 3.7666654075
H 3.4755624043 1.6298217201 4.1489314587
H 1.9685812984 0.7392481504 7.4168827354
H 3.6161295056 1.3128849497 7.0768370906
H 2.2483645952 2.1234984973 6.3391835288
H 2.5841734193 -2.6060388576 7.0810935668
H 2.7562857289 -2.1934597401 4.3205220109
H 5.3376196252 -0.5553484016 6.1944508855
H 4.4060925052 -0.7018897277 7.7040251211
H 4.9665166790 -2.1609399219 6.8585618385
O -0.0004322422 0.1649362497 -2.0480120959
C 0.0788568189 -1.0367264633 -2.9157920224
O -1.0479968545 -1.1389923769 -3.6831011534
C -1.0723027296 -0.1343080599 -4.7379541102
C -0.6975000773 1.1825423785 -4.1047914184
C -0.2516330844 1.2943975596 -2.8530704422
H -0.3274861800 -0.4301559098 -5.4869606919
H 0.0165741132 2.2089853848 -2.3448959962
H -0.7702977512 2.0925466203 -4.6899566815
H 0.1347101458 -1.8795711321 -2.2415082459
H 0.9907632284 -0.9030128494 -3.5103592907
C -2.4722666789 -0.1324924887 -5.4498034864
N -3.5770337928 0.2668905155 -4.5866296030
C -2.3698029061 0.8454694333 -6.6345822891
C -2.8144820113 -1.5936411805 -5.9540655882
O -1.5947481364 -2.1442155379 -6.4233986351
O -3.3133499582 -2.3466651602 -4.8578699773
C -3.8911046440 -1.6234704403 -7.0393881635
H -3.7498945130 -0.4783176461 -3.9163600550
H -3.3798155329 1.1384312616 -4.1014425344
H -1.6299157879 0.5086803686 -7.3672790272
H -3.3405312662 0.9320775968 -7.1240645415
H -2.0946288038 1.8542238186 -6.3089328324
H -1.8017356125 -2.8326185503 -7.0763837520
H -2.6784993045 -3.0593860993 -4.6540644849
H -4.7944851627 -1.1165310169 -6.6925957914
H -3.5537155603 -1.1617658266 -7.9705413089
H -4.1494583314 -2.6706828156 -7.2315516100
