94
# extracted from Terachem optimization
Mn 0.2564691390 -0.0921596085 -0.0828536913
N 0.6287717686 1.9149701850 -0.4479509259
C 1.9348882985 2.1996875976 -0.3285659413
N 2.1398726192 3.5254475135 -0.5342467443
C 0.9302752790 4.1116961673 -0.7990030135
C -0.0051072249 3.0931530414 -0.7427629876
H -1.0721801819 3.1452114797 -0.9005240064
H 3.0073928048 4.0517950942 -0.5694293495
N 2.2693931649 -0.0345210657 0.1126583360
C 2.8448397192 1.1199046512 -0.0439025154
C 4.3413053721 1.1060107793 0.1158219853
C 4.6318696448 -0.4159612870 0.0279747008
C 3.2806598315 -1.0637702072 0.4179589954
H 3.2196295937 -1.3062404894 1.4869736963
H 3.0638496829 -1.9822155849 -0.1279167408
H 4.8451409924 -0.6594095892 -1.0198354594
H 4.8709753830 1.6860419315 -0.6450354026
H 4.6272632935 1.5242154359 1.0918468300
C 5.8386621317 -0.8575149540 0.8619233663
O 6.9350731103 -0.0732962094 0.4332810681
C 6.1160320987 -2.3587122916 0.6936429313
O 5.2425239895 -3.1975381246 0.6870541742
H 5.6161313922 -0.6895436794 1.9327796510
H 7.6877337537 -0.2042365288 1.0323840504
H 7.1876429920 -2.6289348252 0.5813895618
C 0.8733298377 5.5969431067 -1.0428776339
O 2.1784697262 6.0557201484 -1.2775385090
C 0.2725978355 6.3359013837 0.1709310806
O 0.8901002396 7.2322489980 0.6926602444
H 0.2092317534 5.8003670092 -1.9011402665
H 2.2833708705 6.8623985453 -0.7291277635
H -0.7294526717 6.0188942072 0.5134774192
N 0.0098320203 -2.0066087433 0.6023249853
C -0.1847578183 -2.0550316220 1.9292813138
N -0.3608826020 -3.3427398605 2.3210707392
C -0.2828433245 -4.1450342226 1.2137258216
C -0.0532595278 -3.2956107668 0.1454823966
H 0.0650335868 -3.5366824294 -0.9003756239
H -0.5830631535 -3.7213760431 3.2365347303
N 0.0081224718 0.2409676748 1.9342739034
C -0.1996321113 -0.8155733075 2.6614938997
C -0.3824873847 -0.5481204297 4.1316361193
C -0.6170763876 0.9852247098 4.1251215808
C 0.0242031340 1.4408491988 2.7918267825
H 1.0684173406 1.7602431199 2.9161762605
H -0.5069800501 2.2642778508 2.3163913361
H -1.6975111391 1.1657104761 4.0715799996
H -1.2077604213 -1.1065082466 4.5824851252
H 0.5265182915 -0.8232409750 4.6859753243
C -0.0984913703 1.6939148572 5.3771424679
O -0.7241997100 1.0755224777 6.4886943274
C -0.4076960343 3.1969697561 5.3493472358
O -0.5277543569 3.8400385912 4.3300790636
H 1.0020712623 1.5872042235 5.4263877074
H -0.2931507073 1.3593129353 7.3112525982
H -0.5196623523 3.6676687881 6.3490789072
C -0.4238001441 -5.6352269728 1.3765438811
O -0.9680004838 -5.8899885111 2.6447494963
C 0.9404104631 -6.3460806716 1.2451513386
O 1.3141321538 -7.0843820479 2.1239290367
H -1.0662366015 -6.0296577749 0.5697916970
H -0.4324626156 -6.6184213561 3.0260440542
H 1.5244812255 -6.1624023847 0.3250326109
N -1.7752254846 0.0800450070 -0.4632823057
C -2.0521265851 -0.1474613858 -1.7558060150
N -3.3893053367 -0.0562662142 -1.9661407067
C -3.9946483050 0.2282964129 -0.7706969153
C -2.9736196800 0.3104482022 0.1602363610
H -3.0389968024 0.5062665485 1.2202196051
H -3.9289237240 -0.2106494721 -2.8123576882
N 0.2025593168 -0.4874277063 -2.0747822603
C -0.9635718500 -0.4599913628 -2.6455202455
C -0.9516566213 -0.7137247536 -4.1282701536
C 0.4844596265 -1.2674618945 -4.3272737951
C 1.2477590731 -0.7555888484 -3.0806180257
H 1.7877509616 0.1816125373 -3.2716073546
H 1.9747639743 -1.4704986905 -2.6950602586
H 0.4403118825 -2.3621461293 -4.2881239096
H -1.7280728248 -1.4090922829 -4.4602200231
H -1.1101934934 0.2241022913 -4.6795452490
C 1.1017232997 -0.8817309164 -5.6730119604
O 0.2050418960 -1.3264123909 -6.6764425201
C 2.4898458955 -1.5076710152 -5.8615771461
O 3.2419800159 -1.7578972350 -4.9465504631
H 1.2317656144 0.2169061969 -5.7107455703
H 0.4614601164 -0.9558571405 -7.5365862370
H 2.7660020457 -1.7210433892 -6.9161433030
C -5.4940594311 0.3956036368 -0.7352482463
O -6.0091957508 0.0047127913 -1.9808940244
C -5.8690212611 1.8618669393 -0.4496748655
O -6.5633886290 2.4701016263 -1.2274220586
H -5.9136007758 -0.2137991150 0.0836224125
H -6.6148209231 0.7226982418 -2.2631834895
H -5.4839710710 2.3089269781 0.4858168790
