148
# extracted from Terachem optimization
Mn 0.2707138949 0.2222402071 0.2417629552
O 0.5139890344 2.3139242002 -0.0439611603
C 1.8730110156 2.6569031013 -0.4061437512
C 2.0815711221 4.0142355303 0.2124315125
C 0.9516272170 4.4678074794 0.7520534404
C -0.1559905797 3.4769052904 0.5239573631
H -0.6521231658 3.1705462533 1.4479992707
H -0.9111879980 3.8321235837 -0.1847046388
H 3.0185399551 4.5563193606 0.1849366340
H 1.9411390598 2.6905141449 -1.5047449227
N 2.2976006727 0.4038311612 0.4039025278
C 2.8095208849 1.5588696094 0.0905865659
N 4.1218275900 1.8613145336 0.1241066926
C 5.1894179750 0.9034097286 0.4410857399
C 4.6114853317 -0.5081604964 0.3064243725
C 3.2349841628 -0.5800499853 0.9729807711
H 5.4961245901 1.0745272347 1.4772974671
H 4.5001439073 -0.7612309076 -0.7528502863
H 5.2898973529 -1.2336448532 0.7605567795
H 4.4310437937 2.8199292524 0.0228631091
H 3.3197071832 -0.3993039642 2.0543803629
H 2.8157658299 -1.5797522051 0.8519099186
C 6.4550746039 1.2239735471 -0.4627875675
N 6.3716641739 0.4879304340 -1.7144373509
N 6.4772123356 2.6672898519 -0.7193253605
C 7.7254246517 0.8716043294 0.3872272397
N 7.8175716603 1.6046647231 1.5793403855
O 7.7475481921 -0.4900757993 0.5666207114
Cl 9.2864475205 1.2793514717 -0.7622691716
H 7.1452498373 0.7809984793 -2.3114304351
H 6.5196519324 -0.5069994864 -1.5479001406
H 7.4247742709 2.9482834858 -0.9757049679
H 5.9116076133 2.8287014296 -1.5531661778
H 8.6642008320 1.4131517843 2.1099198533
H 7.7311757926 2.6051023769 1.4220295375
H 8.5882207656 -0.7619545692 0.9728056202
C 0.7707350183 5.7530372799 1.5548869720
N 0.0878818652 5.3725097207 2.8000237126
N 2.0767799363 6.3401861416 1.7876374943
C -0.0619636007 6.7699064571 0.6954316258
N 0.5735641451 7.1098108617 -0.5008796373
O -1.3276400993 6.2474318103 0.5478758802
Cl -0.2954856771 8.3705013762 1.8319186612
H 0.1154820508 6.1708710979 3.4350164948
H -0.9032705688 5.2212697866 2.6069862354
H 1.9658363362 7.2314782009 2.2707688211
H 2.6102970772 5.7262301904 2.4008329633
H 0.1115817543 7.8566167166 -1.0137867299
H 1.5494432058 7.3472477341 -0.3390885426
H -1.9009990857 6.8815586290 0.0854813944
O -0.2090080320 -1.8537125029 0.4489110627
C -0.6600463643 -2.1935076095 1.7798599758
C 0.1116716230 -3.4459038705 2.1125756499
C 0.8152437957 -3.8625857619 1.0610528100
C 0.5599844595 -2.9564613443 -0.1108279911
H 1.4629265774 -2.5421494325 -0.5638805881
H -0.0332648752 -3.4461829156 -0.8899175077
H 0.0655429059 -3.9447918185 3.0724447832
H -1.7461233031 -2.3712477476 1.7417727569
N 0.0509583847 0.0995377911 2.2713200459
C -0.3997793622 -1.0317370776 2.7365413299
N -0.6680981423 -1.2806394595 4.0319962757
C -0.5744168395 -0.2892725769 5.1127158562
C -0.5221741769 1.1017039900 4.4758277786
C 0.4426700999 1.0913851239 3.2875282737
H 0.3571586781 -0.4752484814 5.6553278564
H -1.5176634771 1.3826197063 4.1170756708
H -0.2037438758 1.8380991587 5.2167681744
H -0.8771251170 -2.2221105004 4.3431302437
H 1.4648270725 0.8632094559 3.6217382579
H 0.4798093120 2.0741427961 2.8174893382
C -1.7529465618 -0.5370709649 6.1465346510
N -2.9331245664 0.2125586573 5.7435988292
N -2.0452056641 -1.9742196113 6.1717188750
C -1.2106571275 -0.1377143217 7.5640253928
N -0.0961596129 -0.8891694919 7.9620102208
O -1.0012348006 1.2197227240 7.5687138339
Cl -2.7024801506 -0.4420903844 8.8320093373
H -3.6987736145 -0.0344732288 6.3711937201
H -2.7780552351 1.2103082300 5.8851245755
H -2.5050346009 -2.2065245217 7.0533613938
H -2.7455200102 -2.1493142170 5.4503976023
H 0.2295296563 -0.6689701059 8.9001470260
H -0.2581508995 -1.8891257324 7.8800269754
H -0.8070634663 1.5275767319 8.4705538317
C 1.7746833898 -5.0481255661 1.0104722104
N 3.0260930983 -4.5569315422 0.4183382521
N 1.9539568415 -5.5554610407 2.3585158880
C 1.1055953733 -6.1905850138 0.1637159837
N -0.0958393313 -6.6314305891 0.7203147732
O 1.0076960670 -5.7437622877 -1.1387871144
Cl 2.4197085856 -7.6610506353 0.0940803985
H 3.7348475810 -5.2823872152 0.5304097129
H 2.9049230359 -4.4561925166 -0.5904350420
H 2.5501226993 -6.3824982628 2.3339156012
H 2.4323527136 -4.8507594905 2.9171954936
H -0.4883110426 -7.4491583453 0.2608575193
H 0.0066127537 -6.7998760457 1.7183928728
H 0.7576192057 -6.4789469878 -1.7235464705
O -1.8530824247 0.2203545229 -0.0141819761
C -2.2322258858 -0.2777131312 -1.3153113991
C -3.3768352750 0.6125568421 -1.7242635648
C -3.7332548029 1.4124829573 -0.7207906834
C -2.8652031400 1.1414370014 0.4781986043
H -2.3639550642 2.0293338758 0.8645317745
H -3.4096551544 0.6546726684 1.2942115386
H -3.8684578687 0.5630942084 -2.6876392443
H -2.5554309454 -1.3243450398 -1.1975339143
N 0.1601853254 -0.0321884818 -1.7937189400
C -1.0310414403 -0.2834623455 -2.2604634192
N -1.3089735043 -0.6235316797 -3.5338611698
C -0.2979082268 -0.7924909145 -4.5851540388
C 1.0487270364 -1.0368652733 -3.9010109454
C 1.2576056594 -0.0208719126 -2.7745403176
H -0.2530582999 0.1363352539 -5.1612930008
H 1.0650974769 -2.0473269556 -3.4810114759
H 1.8555702576 -0.9571920253 -4.6340279446
H -2.2683113237 -0.6723024118 -3.8574471520
H 1.3511103100 0.9925580443 -3.1912360693
H 2.1816610633 -0.2323384961 -2.2329431264
C -0.7690617257 -1.9300408241 -5.5920552713
N -0.1686164117 -3.2026388461 -5.2214996917
N -2.2302035107 -2.0239977274 -5.5495140059
C -0.3683294842 -1.4415298049 -7.0294005955
N -1.0093259312 -0.2524813167 -7.4069632545
O 1.0030614283 -1.3728669184 -7.0743101512
Cl -0.8760049860 -2.8924215151 -8.2700426349
H -0.5317396106 -3.9213744032 -5.8480464921
H 0.8363722117 -3.1769886851 -5.3939547933
H -2.5577426581 -2.5044196734 -6.3892183128
H -2.4678846298 -2.6400928857 -4.7715159235
H -0.7809801990 0.0496526764 -8.3510475191
H -2.0181078090 -0.3094716448 -7.2983996978
H 1.3029396812 -1.1956008200 -7.9822999736
C -4.8290752443 2.4743142505 -0.7417588197
N -4.2542609392 3.7019808831 -0.1745914010
N -5.2750231851 2.6487102290 -2.1125965179
C -6.0525365657 1.9365543500 0.0849629369
N -6.5853684693 0.7633913530 -0.4492395880
O -5.6610895252 1.8394290764 1.4054986267
Cl -7.4020508372 3.3794766015 0.0653399401
H -4.9178015945 4.4603508983 -0.3355086789
H -4.2003415682 3.6090061635 0.8408817394
H -6.0491344788 3.3123354794 -2.1365213210
H -4.5139355766 3.0467036609 -2.6601961849
H -7.4400663577 0.4522147645 0.0049101676
H -6.7239278955 0.8484482443 -1.4533002014
H -6.4408473420 1.7136352038 1.9721440568
