142
# extracted from Terachem optimization
Mn 0.2090214961 -0.1857497463 0.2836600493
N 0.8790702710 1.9794718402 0.0014716025
C 2.1628492858 2.1166564928 -0.0481583860
N 2.6310573025 3.2674375942 -0.6312746742
C 1.4809531248 3.8170227184 -1.4084045483
C 0.3052412999 3.1924052269 -0.6166145374
H -0.0511813908 3.8559040854 0.1792921833
H -0.5487685776 2.9555505030 -1.2500943790
H 1.5137950169 3.3722640606 -2.4104670447
H 3.5324216358 3.2274715252 -1.0964760703
N 2.4931925554 -0.1255066611 0.6088301212
C 3.0388661466 1.0483468093 0.5068486662
N 4.3110603905 1.3851343942 0.8243627310
C 5.2633784499 0.4147952761 1.4063823883
C 4.8186883562 -0.9823471232 0.9546872899
C 3.3205126908 -1.1793103472 1.2127918484
H 5.1869711720 0.4758712086 2.4977760405
H 5.0170347185 -1.1124530230 -0.1146074139
H 5.4034965823 -1.7341612185 1.4881890339
H 4.5254905256 2.3703004485 0.9227535723
H 3.1163678763 -1.1998465791 2.2934816457
H 2.9826969426 -2.1384764317 0.8108734898
C 6.7049416043 0.8400080826 1.0233953200
C 7.0604974305 0.6150775586 -0.4501928424
C 7.7573822998 0.1966904200 1.9605135842
O 7.4155232452 0.5758444494 3.2696417895
O 7.7639629071 -1.1948665981 1.8151713683
O 9.0645604867 0.6178532232 1.6459883160
H 6.7691232149 1.9173757562 1.2413914108
H 8.0181231277 1.0855015624 -0.6837253638
H 7.1518611264 -0.4508024458 -0.6758524701
H 6.2978912727 1.0447842391 -1.1091033199
H 7.9148584752 -0.0004580798 3.8743619685
H 8.6963407854 -1.4616851228 1.7366458968
H 9.2193018765 1.4629456015 2.0989711954
C 1.5129833422 5.3451805161 -1.5897650611
C 1.4121841343 6.1423481444 -0.2858048312
C 0.4304966409 5.7680945543 -2.6143464963
O 0.7080768755 5.0820729410 -3.8117253833
O -0.8486692495 5.4362020907 -2.1411496617
O 0.4092105808 7.1575466679 -2.8227751630
H 2.4722444144 5.5780634497 -2.0742058725
H 1.5744336417 7.2052156389 -0.4780939854
H 0.4240028090 6.0371633814 0.1719709906
H 2.1645385142 5.8023256258 0.4324224296
H -0.1150776978 5.0121637382 -4.3291294918
H -1.3903643317 6.2384397157 -2.2387452977
H 1.0781046115 7.3693212304 -3.4939589908
N -0.1228951819 -2.3938311038 0.5868810240
C -0.3394388557 -2.6913081894 1.8266448173
N -0.5232200746 -4.0146081611 2.1092327166
C -0.3106644362 -4.8033786402 0.8658569102
C -0.0959254517 -3.6560166443 -0.1791187671
H 0.8427673247 -3.7450469159 -0.7295938782
H -0.9013005631 -3.6458184600 -0.9191163944
H -1.2292240955 -5.3499354569 0.6462106904
H -0.2124391844 -4.3939386395 2.9960283635
N -0.1189179602 -0.4208260760 2.5177092388
C -0.4514779615 -1.6248890898 2.8716077611
N -0.8683925265 -2.0119586255 4.1015004006
C -1.0086197789 -1.0484999456 5.2184723951
C -1.2781192328 0.3338324477 4.6073814768
C -0.2379487947 0.6407592687 3.5253470332
H -0.0480365764 -1.0214683700 5.7435072035
H -2.2796581421 0.3565119972 4.1636377579
H -1.2471577932 1.0920805610 5.3923681680
H -1.3410093910 -2.9030075005 4.1806984770
H 0.7515602466 0.7949437495 3.9787813055
H -0.4853760210 1.5712243816 3.0036756012
C -2.0624916868 -1.5855617269 6.2192345263
C -3.5165438220 -1.4143749483 5.7652860047
C -1.8413306378 -0.9991070525 7.6356350235
O -0.5471038906 -1.3792386345 8.0303837874
O -1.9870224922 0.3924049588 7.6185128363
O -2.7965894578 -1.4730221556 8.5563032541
H -1.8485832908 -2.6590760487 6.3371830530
H -4.1880991748 -1.9529248293 6.4371261400
H -3.8071568770 -0.3604841920 5.7780174871
H -3.6669870192 -1.8012921390 4.7507001010
H -0.2917659195 -0.8003197441 8.7697157164
H -2.5226148651 0.6250158720 8.3969471178
H -2.4655182907 -2.3119446650 8.9171719411
C 0.8207804123 -5.8476999338 1.0203331165
C 2.2219616520 -5.2550933381 1.1981365277
C 0.7723785351 -6.8654907811 -0.1447492827
O -0.4884927759 -7.4787840676 -0.0835092882
O 0.9730218702 -6.2018218615 -1.3629285014
O 1.7954241232 -7.8298895857 -0.0668810577
H 0.5692934122 -6.4354197872 1.9154228752
H 2.9430819320 -6.0453962462 1.4187047355
H 2.5596599509 -4.7499382429 0.2879768511
H 2.2457963682 -4.5359681896 2.0247891577
H -0.6335770318 -7.9344942278 -0.9308849517
H 1.5544696161 -6.7732261169 -1.8943597627
H 1.4859792482 -8.5418453748 0.5174112418
N -2.0191198985 0.2033975217 -0.0246716372
C -2.3297727847 0.2694999411 -1.2752855938
N -3.6602786537 0.3639891391 -1.5749781455
C -4.4347405557 0.2410975719 -0.3108195011
C -3.2810132716 0.1523041924 0.7422711499
H -3.3146540097 0.9751602766 1.4577757580
H -3.3237399316 -0.7772125006 1.3188276474
H -5.0090620276 -0.6884880346 -0.3320605405
H -4.0160434701 -0.0681671863 -2.4199854232
N -0.1001511136 -0.1032594941 -2.0364080700
C -1.2784520176 0.3497700402 -2.3311708098
N -1.6626416167 0.9173867208 -3.5057480273
C -0.6570578604 1.2820728954 -4.5223859046
C 0.4073617056 0.1790391989 -4.4904719717
C 0.9467504393 0.0046319698 -3.0637742846
H -0.1937357847 2.2295712161 -4.2190242093
H -0.0309905497 -0.7655303016 -4.8304645163
H 1.2194217542 0.4326956080 -5.1760228462
H -2.5235279695 1.4519358424 -3.4884223500
H 1.5952954063 0.8490973001 -2.7920914502
H 1.5675270015 -0.8955038319 -3.0020153466
C -1.3769577672 1.5392263169 -5.8675561776
C -1.8106398260 0.2647203116 -6.6027798271
C -0.5602635428 2.4875771917 -6.7771399961
O -0.2718489694 3.6855125951 -6.0890118215
O 0.7020741883 1.9567484089 -7.1439350922
O -1.3400342897 2.7335412746 -7.9056091416
H -2.2796858105 2.1212650073 -5.6313009345
H -2.4494339209 0.5133718690 -7.4527384950
H -0.9497607286 -0.2983129720 -6.9783280170
H -2.3739698380 -0.3942217542 -5.9336089321
H 0.6732592118 3.8608864320 -6.2424074232
H 0.5845351840 1.5058383471 -7.9964136852
H -1.0243105873 3.5624934590 -8.3053535196
C -5.4298371592 1.4161527034 -0.1640770504
C -4.7612171450 2.7880785201 -0.0350346604
C -6.4309043623 1.1586295760 0.9853051329
O -7.1220603977 -0.0187979450 0.6592808090
O -5.7515070019 1.0319019773 2.2071321927
O -7.3259605983 2.2305488528 1.1651956921
H -6.0383647984 1.4094640068 -1.0789031069
H -5.5133169906 3.5792788201 -0.0664493642
H -4.2234185069 2.8890822632 0.9127652730
H -4.0564515277 2.9547041725 -0.8561368516
H -7.6003285281 -0.3046250048 1.4571080813
H -6.2569508982 1.5524708288 2.8553588874
H -8.0391635079 2.1353654178 0.5124435948
