139
# extracted from Terachem optimization
Mn 0.2247068488 0.1532717347 0.1669623680
N 0.7828493370 2.0961199710 0.4615695142
C 2.0332636266 2.3924173522 0.3085440356
S 2.5236343929 4.0506401423 0.5426927082
C 0.7219195926 4.5715368112 0.5728991023
C -0.0197610033 3.2569913854 0.8964726439
H -0.1890744599 3.1674801236 1.9783903943
H -0.9931518333 3.2182175206 0.4051610902
H 0.5034376910 4.8849604100 -0.4524134120
O 2.2840187498 0.1065277241 -0.2514829359
C 3.0364615901 1.3419685534 -0.0754547406
C 4.1752365171 1.1523131763 0.9364731332
C 5.1778270598 0.0907597368 0.4314855844
C 4.3881168705 -1.0807991305 -0.0961450559
C 3.0873174095 -1.0421931054 -0.3760605339
H 5.7487226319 -0.2516274765 1.3037309114
H 4.6763336828 2.1137529794 1.0912274248
H 3.7386401839 0.8525891121 1.8966981134
H 2.4977179242 -1.8713217961 -0.7391369557
H 4.8899192000 -2.0264710294 -0.2682284785
H 3.4545182553 1.5972146132 -1.0578669411
C 6.1903845861 0.6838779723 -0.5899551134
C 7.4969581854 -0.0986368464 -0.8732283158
C 8.3567115095 -0.2864498079 0.3857697773
C 7.3001223313 -1.4293894137 -1.6173906739
H 5.6747565576 0.8648226336 -1.5434966162
H 6.4850792155 1.6686406086 -0.2018858810
H 8.0588604008 0.5590248813 -1.5511100577
H 7.8998716939 -0.9871074023 1.0967938291
H 9.3370828530 -0.6963007569 0.1218589176
H 8.5243471228 0.6633959349 0.9069337516
H 6.6128682221 -1.3243463374 -2.4653454739
H 8.2576037000 -1.7879598130 -2.0094262116
H 6.9175063183 -2.2179730469 -0.9582002688
C 0.5080336464 5.7446895292 1.5426292835
C -0.8512307800 6.4853484725 1.4490836624
C -1.1044601860 7.0877682924 0.0588420260
C -2.0527183541 5.6559120669 1.9287070001
H 0.6644666275 5.3878017664 2.5690072906
H 1.2941819890 6.4855010389 1.3508314861
H -0.7452767502 7.3234325566 2.1508527714
H -1.3076788203 6.3159222031 -0.6957048091
H -1.9771596854 7.7484212485 0.0802653645
H -0.2506583466 7.6819828164 -0.2864777292
H -1.8703832076 5.2095598447 2.9138897437
H -2.9409077001 6.2902432874 2.0147034447
H -2.3053669460 4.8520764803 1.2249522845
N -0.0600421957 -1.8895032202 0.0928307417
C 0.0595422497 -2.5861730689 1.1736984147
S -0.2095162303 -4.3107683663 1.0822299808
C -0.8987439352 -4.1026936253 -0.6472295570
C -0.3548511167 -2.7258531785 -1.0883441958
H 0.5734548169 -2.8411118241 -1.6636943051
H -1.0701437777 -2.2045137337 -1.7255706471
H -1.9834299615 -4.0512393660 -0.5147568219
O 0.4902407755 -0.5090403801 2.2111710128
C 0.3887757340 -1.9319475052 2.4866941156
C 1.6661194603 -2.4490101446 3.1629297474
C 1.8757492618 -1.7465958370 4.5235446133
C 1.6028919224 -0.2742693344 4.3429280658
C 0.9954189517 0.2477208416 3.2793502137
H 2.9370250892 -1.8522330329 4.7820328005
H 1.5866985212 -3.5334463881 3.2959713107
H 2.5121557864 -2.2617703181 2.4910700515
H 0.8163353844 1.2991779079 3.1034478211
H 1.9338406200 0.4213482905 5.1061678022
H -0.4642270781 -2.0637399646 3.1664425823
C 1.0584278974 -2.4412425447 5.6473442601
C 1.2071526187 -1.9424409175 7.1070745293
C 2.6748764877 -1.8309223915 7.5485936352
C 0.4169897152 -0.6633156722 7.4289387200
H -0.0083811157 -2.4267170836 5.3803011835
H 1.3659302428 -3.4957695060 5.6288467313
H 0.7523494659 -2.7401324715 7.7109002562
H 3.1992641078 -1.0134709321 7.0365673322
H 2.7375748654 -1.6285401233 8.6226457780
H 3.2260789223 -2.7586964837 7.3547272201
H -0.6244388600 -0.7400817823 7.0935040594
H 0.4023570104 -0.4921110146 8.5106500966
H 0.8524309197 0.2319210496 6.9714505168
C -0.5308202152 -5.3094176237 -1.5247205660
C -1.2461999975 -5.4180982279 -2.8962358904
C -2.7767891711 -5.4470058918 -2.7665956587
C -0.7896479964 -4.3743989493 -3.9276520941
H 0.5568744223 -5.3199403713 -1.6737781112
H -0.7744344908 -6.2173270021 -0.9592485379
H -0.9353438904 -6.3981288351 -3.2826865078
H -3.1821040639 -4.4744913499 -2.4563959957
H -3.2380066316 -5.6933296323 -3.7284417426
H -3.1075124560 -6.1983702288 -2.0402681541
H 0.3030213764 -4.3410448949 -4.0154919339
H -1.1901750704 -4.6199128071 -4.9167276050
H -1.1458031730 -3.3650251824 -3.6837572386
N -1.7858865379 0.5360488382 0.2072097758
C -2.4069036278 0.8199546900 -0.8873588799
S -4.1190441751 1.1620667227 -0.8021495895
C -4.1482549394 0.5951444752 0.9851288295
C -2.6546611888 0.5896231454 1.3978150323
H -2.4017314097 1.4971945156 1.9603186977
H -2.4277877019 -0.2658920245 2.0375432215
H -4.5338832247 -0.4273988896 0.9486968627
O -0.3462377746 0.3530984768 -1.9437161874
C -1.6796787517 0.8604995131 -2.2053299495
C -1.6322132683 2.2509447040 -2.8556447821
C -0.9002427923 2.1862613305 -4.2155206687
C 0.3284061724 1.3274349209 -4.0505171232
C 0.5548568763 0.5356683225 -3.0043355573
H -0.5601236924 3.2036031449 -4.4474256237
H -2.6553969439 2.6211760810 -2.9798355871
H -1.1164716985 2.9366280570 -2.1726105782
H 1.4399211911 -0.0677765878 -2.8542289756
H 1.0973202639 1.3588097078 -4.8144374300
H -2.1581764192 0.1557969756 -2.8980694560
C -1.8625232441 1.7571456193 -5.3567775021
C -1.3317783255 1.7420127878 -6.8135038162
C -0.5693519931 3.0239965840 -7.1823857703
C -0.5329735648 0.4807986695 -7.1825316205
H -2.2814857163 0.7664906437 -5.1278087203
H -2.7030015006 2.4638921338 -5.3177768158
H -2.2390516951 1.7192245319 -7.4333053476
H 0.3940934251 3.0931493947 -6.6606866021
H -0.3540188810 3.0461343502 -8.2555308002
H -1.1481018171 3.9245861168 -6.9445533194
H -1.0840393975 -0.4315369699 -6.9247849283
H -0.3440393491 0.4570896508 -8.2611134036
H 0.4424454744 0.4351029704 -6.6860153134
C -5.0842361647 1.4811401816 1.8248887832
C -5.5226431861 0.9122611873 3.1993451769
C -6.3385610270 -0.3830676343 3.0678242923
C -4.3728724614 0.7501618543 4.2055180207
H -4.6096625376 2.4615807950 1.9633601211
H -5.9966106571 1.6594759366 1.2428350603
H -6.1960325118 1.6793645455 3.6049525383
H -5.7239075031 -1.2264314828 2.7268042604
H -6.7615966822 -0.6685518210 4.0363378041
H -7.1707882075 -0.2644468559 2.3648989608
H -3.7818812599 1.6693588772 4.3018824494
H -4.7676494781 0.5094240328 5.1979420262
H -3.6965399938 -0.0682139162 3.9266256311
