133
# extracted from Terachem optimization
Mn 0.3881855993 -0.0334845226 0.0528212347
O 1.1534876254 2.1103099665 0.1243734039
C 2.4283343865 2.1341481044 0.8170561724
S 3.0075818955 3.8752411917 0.8001756629
C 1.9775861405 4.1654986268 -0.6208718872
C 1.1014141399 3.1629950079 -0.8031671275
H 0.3311397202 3.0546656812 -1.5565357560
H 2.2628311272 1.7828127522 1.8365235825
O 2.5769057019 -0.0586003192 -0.1452942301
C 3.3626974659 1.1711558130 0.0606944985
N 4.5143354612 0.8638979664 0.8322910578
C 5.4707378851 -0.1079172060 0.2794903295
C 4.6998733767 -1.1315449865 -0.5035166821
C 3.3763587836 -1.1151017209 -0.6339981403
H 5.9126133370 -0.6397798185 1.1339355664
H 4.9506694128 1.6795169682 1.2535767108
H 2.7782739628 -1.8775435392 -1.1179020772
H 5.2566367040 -1.9511344149 -0.9416561069
H 3.5464745174 1.5448310023 -0.9573949624
C 6.6845401959 0.5572545054 -0.4661809545
C 6.3027263404 1.2319788720 -1.7858643305
C 7.8330161179 -0.4789557365 -0.6259561553
N 8.1820021726 -1.0754362021 0.6171818957
O 7.4612513920 -1.4239937838 -1.5628466941
Cl 9.3532988015 0.4577498867 -1.3012639117
H 7.0741742534 1.3160459873 0.2260525340
H 7.1787038046 1.6899638256 -2.2498487393
H 5.8822091531 0.5130078416 -2.4938680044
H 5.5767393459 2.0348559952 -1.6159129189
H 8.7860876524 -1.8878985100 0.5099020735
H 8.6204592070 -0.4219292317 1.2627507806
H 8.2472403863 -1.8933237516 -1.8939575605
C 2.1269972991 5.3835571886 -1.5053231633
C 3.4444241205 5.3312255679 -2.3022276626
C 1.9671007456 6.6591877947 -0.6355603663
N 0.7018232373 6.6538285949 0.0274641672
O 3.0170976423 6.6600692568 0.2686572945
Cl 2.1339030701 8.1619140881 -1.7528616869
H 1.2840210506 5.3701784631 -2.2060587749
H 3.4739329198 6.1488128870 -3.0245188022
H 4.3092531933 5.4271646664 -1.6409736473
H 3.5164734827 4.3859171012 -2.8495552491
H 0.6455598297 7.4039524686 0.7154105579
H -0.0586693964 6.7984602477 -0.6344737734
H 3.0993126665 7.5263267579 0.7048563108
O 0.3650816389 -2.2242408221 0.2768774840
C 0.8583181907 -2.5644508861 1.6078069914
S 0.5448949986 -4.3628139691 1.8564721498
C -0.6476037701 -4.3215447591 0.5296409437
C -0.5879947102 -3.1762049831 -0.1558679113
H -1.1188737143 -2.8840469111 -1.0505602248
H 1.9285620357 -2.3524986009 1.6184299477
O 0.2219618022 -0.2905945084 2.1723377626
C 0.1409638083 -1.6900374846 2.6475412152
N 0.7936162814 -1.7689790787 3.9055535750
C 0.2322213506 -0.9665710574 5.0101860068
C -0.3157778724 0.3095946045 4.4342527807
C -0.2626351578 0.6180763051 3.1420056580
H 1.0792575216 -0.6759651215 5.6446491722
H 1.0255020591 -2.7198203174 4.1787364366
H -0.5853225613 1.5515889052 2.6962300241
H -0.7320183797 1.0315988509 5.1268746807
H -0.9387492808 -1.9039325246 2.6462413033
C -0.7419055748 -1.7712787540 5.9412295368
C -2.0627316788 -2.1559504733 5.2657539888
C -0.9392468522 -1.0223285044 7.2836485966
N 0.3047868942 -0.7166710497 7.9001264650
O -1.6991875007 0.1135995651 7.0648828472
Cl -1.9413417934 -2.1724656414 8.4414374845
H -0.2014596221 -2.6918706961 6.2015027991
H -2.6850432483 -2.7395473391 5.9465390796
H -2.6290153194 -1.2699491094 4.9634607531
H -1.8756515880 -2.7801478026 4.3850992889
H 0.2014876604 -0.0920517711 8.6976953567
H 0.8008503510 -1.5503279073 8.2085203861
H -2.0588455669 0.4355263360 7.9099837474
C -1.6215358123 -5.4525331660 0.2670191960
C -2.8118549788 -5.3807643321 1.2435976852
C -0.8651412992 -6.8063118605 0.3059708612
N 0.2250518633 -6.8013242923 -0.6130050036
O -0.4360126491 -6.9785947869 1.6121700325
Cl -2.0938054907 -8.1725071143 -0.1083929452
H -1.9919771695 -5.3249492806 -0.7567937898
H -3.5446097751 -6.1530912955 1.0023724204
H -2.4879091615 -5.5269873350 2.2767552414
H -3.2999394846 -4.4040904394 1.1581872127
H 0.8154418116 -7.6229040939 -0.4896683535
H -0.1042823208 -6.8117889068 -1.5767577540
H -0.1025650134 -7.8829427026 1.7488176396
O -1.9886593167 0.0969294950 -0.0111881046
C -2.3681465538 1.0759456009 -1.0080730897
S -4.2108724819 1.0857897369 -1.1352478317
C -4.3020105116 -0.2677676123 0.0024340726
C -3.0880689068 -0.6105847077 0.4679007700
H -2.8373346865 -1.3750077535 1.1888989354
H -2.0169936641 2.0524149981 -0.6599429747
O -0.2963747839 0.3017638589 -1.9658346206
C -1.6651343710 0.7138955276 -2.3221494407
N -1.5674343562 1.8580509805 -3.1742477240
C -0.9406710687 1.6154372742 -4.4990638991
C 0.1647845985 0.6148328401 -4.3077585782
C 0.4777334372 0.0730318750 -3.1353347142
H -0.4507215873 2.5538531501 -4.7816192567
H -2.4478072386 2.3628978179 -3.2561656423
H 1.2965828240 -0.6101930193 -2.9484912436
H 0.7574655584 0.3557063842 -5.1774446114
H -2.1104851894 -0.1846195801 -2.7677193847
C -1.9586921812 1.2991820035 -5.6469357078
C -2.7175153134 -0.0196121108 -5.4620559206
C -1.2554594428 1.3892340962 -7.0288472910
N -0.4956217388 2.5880475356 -7.1589071754
O -0.4637036942 0.2649245017 -7.2062046301
Cl -2.6244775003 1.3416128088 -8.3560938873
H -2.6780579072 2.1292054666 -5.6317758317
H -3.3820640474 -0.1972708614 -6.3096018348
H -2.0312661945 -0.8680541559 -5.3920200976
H -3.3479194929 0.0103980442 -4.5660678984
H 0.0772339881 2.5724385569 -8.0012871616
H -1.0973208120 3.4080166985 -7.2164244943
H -0.2964359372 0.1293707179 -8.1550652620
C -5.5997692715 -0.9816219757 0.3145384807
C -5.9938599850 -1.9156009722 -0.8477423190
C -6.6896047857 0.0613278396 0.6791025644
N -6.2530352547 0.8833097374 1.7614411940
O -6.9261800571 0.8051371688 -0.4669169295
Cl -8.2591326394 -0.8700589494 1.1254063943
H -5.4250831515 -1.5833758074 1.2142386306
H -6.8904172428 -2.4797166743 -0.5845685557
H -6.1984697182 -1.3487254638 -1.7591315783
H -5.1855804851 -2.6257929508 -1.0487404722
H -6.8913326023 1.6636710192 1.9118724445
H -6.2160088344 0.3559618176 2.6320711378
H -7.7370967761 1.3357232549 -0.3748514256
