106
# extracted from Terachem optimization
Mn -0.1118554556 -0.0652841291 -0.0905738410
N 0.7153616407 1.9347462019 0.2437261758
C 1.9693851436 2.1527528022 -0.0589298010
O 2.3737049767 3.3850920033 0.2405675728
C 1.2781573073 4.0324940459 0.7976786594
C 0.2546646623 3.1357267969 0.7922414133
H -0.7557596210 3.2672114504 1.1429982348
O 2.1693056092 -0.0722184461 -0.8028764042
C 2.9113960882 1.1822140348 -0.7059972450
N 4.1386432974 1.0542355901 0.0035707609
C 5.0823883049 0.0458904345 -0.5089211382
C 4.3121749666 -1.2935468421 -0.6762632131
C 3.0024903233 -1.1076523863 -1.4308200847
H 5.8399377877 -0.0947741372 0.2637943732
H 4.0502410747 1.0717190713 1.0157098176
H 3.1318443154 1.4987166768 -1.7347558875
H 2.3894906914 -2.0098680394 -1.4047913207
H 3.1711907040 -0.8227592057 -2.4757659551
H 4.9293545774 -2.0325425403 -1.1908998904
H 4.0974345776 -1.6815400117 0.3267007303
C 5.8058317972 0.6167406253 -1.7570175859
C 6.8447684546 -0.3190880866 -2.3772096405
O 7.4769589287 -1.0163379796 -1.3787083627
Cl 6.0306830934 -1.4764365929 -3.6087435779
H 5.1118573678 0.9302022003 -2.5411369868
H 6.3375486452 1.5155611414 -1.4237317785
H 7.5294976900 0.2414093142 -3.0200461841
H 8.2628784885 -1.4739052999 -1.7262145384
C 1.5036565494 5.4246446039 1.2898586155
C 0.2864691492 6.3365912995 1.1146907744
O -0.7910330221 5.7440240065 1.7692376384
Cl 0.6899535172 7.9658766726 1.8117532328
H 2.3605637338 5.8562338494 0.7657243141
H 1.7539675775 5.3992087847 2.3579682973
H 0.0752812043 6.5294427963 0.0569706552
H -1.5473266526 6.3562312142 1.7555794950
N -0.2705373699 -2.2607650559 -0.0660419601
C -0.3054845440 -2.8273263811 1.1119514193
O -0.3766407855 -4.1547588954 1.0564412409
C -0.3826354399 -4.4891917941 -0.2912386961
C -0.3193777972 -3.3173041259 -0.9804612586
H -0.2985472500 -3.1725935002 -2.0478637237
O 0.1188430638 -0.7344852269 2.0714494105
C -0.3152077593 -2.0987392455 2.4197716212
N 0.4916423458 -2.7068807644 3.4124934306
C 0.6067771428 -1.9682258467 4.6859291310
C 1.0031697528 -0.5025307502 4.3615777891
C 0.1194332802 0.1043729285 3.2775895723
H 1.4325260992 -2.4233728703 5.2353212447
H 1.3696378873 -3.0880970019 3.0702281903
H -1.3406248169 -2.0013585198 2.8005268388
H 0.4932857206 1.0750801921 2.9495514404
H -0.9162079484 0.2189330150 3.6179712649
H 0.9558205152 0.1193473356 5.2577104533
H 2.0442751106 -0.5056890100 4.0164813553
C -0.6792620677 -2.1980592585 5.5193712862
C -0.7247710067 -1.4557946792 6.8538773107
O 0.5313485821 -1.4319611832 7.4024773790
Cl -1.3979048830 0.2880832363 6.6045441502
H -1.5905666680 -1.9602022787 4.9645847453
H -0.7167582021 -3.2704411066 5.7434299426
H -1.4825813118 -1.8873774227 7.5127406073
H 0.4937845349 -1.1411213062 8.3305888144
C -0.3939405235 -5.9460751077 -0.6179241864
C -1.1154522686 -6.2679392001 -1.9293647336
O -0.5061722205 -5.5336098230 -2.9451273177
Cl -0.9958091742 -8.0564039545 -2.2247782979
H -0.8657183019 -6.4950620043 0.2014842976
H 0.6378718280 -6.3101722062 -0.7030211915
H -2.1902709893 -6.0670503224 -1.8584783919
H -0.8720762791 -5.8143457188 -3.8019423198
N -2.3080933580 0.3994869608 0.0128501154
C -2.9190696283 0.5164036195 -1.1363769348
O -4.2037950710 0.8499523532 -1.0241654167
C -4.4539422813 0.9688674258 0.3364830550
C -3.2830457627 0.6884242446 0.9708092680
H -3.0871300061 0.6910446439 2.0305853571
O -0.8520229643 0.2105810834 -2.1994912172
C -2.2954691562 0.2861867147 -2.4784203968
N -2.6247316376 1.2843256055 -3.4307563493
C -1.9411423980 1.1898992015 -4.7333299078
C -0.4150240927 1.0513171138 -4.4693544783
C -0.1059996573 -0.0259527095 -3.4391449851
H -2.1003864133 2.1438627108 -5.2386656621
H -2.6907085297 2.2271510426 -3.0569213746
H -2.5807947538 -0.6971878753 -2.8754187250
H 0.9429496266 -0.0044361708 -3.1359211959
H -0.3552463632 -1.0280630463 -3.8058516094
H 0.1178768403 0.8340274436 -5.3972466588
H -0.0528171292 2.0179323043 -4.0985385286
C -2.6245107454 0.0972534121 -5.5970323739
C -1.9697809004 -0.1484887995 -6.9551339282
O -1.5061257310 1.0400092529 -7.4573526604
Cl -0.5751542775 -1.4067270686 -6.7800680124
H -2.7111988293 -0.8602823940 -5.0767592044
H -3.6460857089 0.4467727920 -5.7865322562
H -2.6527197695 -0.6730946152 -7.6278632160
H -1.2712510772 0.9454049779 -8.3971496036
C -5.8270649250 1.4071220442 0.7281077944
C -6.2697637619 0.8703206478 2.0911772491
O -5.3341275497 1.2805014758 3.0391053860
Cl -7.9275326881 1.5229852253 2.4523865708
H -6.5394536715 1.0875034008 -0.0374362331
H -5.8636047117 2.5031641212 0.7696474737
H -6.3958551631 -0.2181208232 2.0751874640
H -5.6617995055 1.0551329346 3.9272662522
