121
# extracted from Terachem optimization
Mn 0.3402413254 0.1932897273 0.1659494226
N 0.6385533653 2.2391537870 0.3363539841
C 1.9112537881 2.5111908433 0.4730831688
O 2.1781214475 3.8237950616 0.5246010037
C 0.9486349902 4.4470145567 0.4101551962
C 0.0053788333 3.4717694355 0.2838303563
H -1.0557575307 3.5949880292 0.1429014989
N 2.3902468984 0.2551372309 0.3966423417
C 2.9072693604 1.4516859680 0.5497642614
N 4.1925395836 1.7474750366 0.7937322159
C 5.2546930593 0.7350777805 0.7753424764
C 4.7418088535 -0.5133941223 0.0530136372
C 3.3243773144 -0.8703029111 0.5234814692
H 5.5334733972 0.4822288018 1.8030587523
H 4.7372657092 -0.3303656619 -1.0265313489
H 5.4127885748 -1.3529889385 0.2554727235
H 4.4921799740 2.7115151081 0.8849328983
H 3.3440640388 -1.1961144343 1.5738158828
H 2.9279111717 -1.7065458186 -0.0587348414
C 6.5076132576 1.3744819914 0.1369545968
O 6.2117502228 1.7065459709 -1.2008852359
O 6.7098642333 2.5566596856 0.9126968348
C 7.7472585597 0.4712374127 0.2211267164
N 7.9883917121 0.0552284456 1.5941947757
H 7.0312291916 1.6858469364 -1.7231374092
H 7.3311536138 3.1300827058 0.4333582164
H 7.5811559565 -0.4187538410 -0.3956750046
H 8.5805168102 1.0341171478 -0.2495904471
H 8.7663142089 -0.5984516858 1.6404324723
H 8.2349873629 0.8638384252 2.1615578908
C 0.9504878443 5.9581417450 0.3652399124
O 1.8931371656 6.3590376968 1.3299692525
O 1.3119283629 6.4157828946 -0.9261307440
C -0.4312562380 6.5611695419 0.6521949790
N -1.4349801227 6.1025379029 -0.3053225596
H 1.9232221192 7.3318581593 1.3142221119
H 2.2313976854 6.1440114349 -1.0913598151
H -0.7271343489 6.2564269913 1.6604950958
H -0.2804821663 7.6549312273 0.6669524291
H -2.3421202495 6.4972935206 -0.0644089029
H -1.1986522546 6.4557862705 -1.2314306705
N 0.1018887938 -1.8418618547 0.2769671162
C -0.0187313302 -2.2411723867 1.5180092115
O -0.2002237926 -3.5632217686 1.6391008153
C -0.1973055941 -4.0511984057 0.3443888322
C -0.0234474592 -2.9901889616 -0.4913729687
H -0.0093841400 -2.9837022346 -1.5684629011
N 0.1179338501 -0.0485096187 2.2437679298
C 0.0347399298 -1.2989977740 2.6290598306
N 0.0352524621 -1.7591616494 3.8887615908
C 0.0902663059 -0.8654471573 5.0492331323
C -0.4233007351 0.5115662870 4.6247608569
C 0.2355334405 0.9538601620 3.3090480122
H 1.1248914770 -0.7868013882 5.3999430173
H -1.5102870716 0.4660509098 4.5015460709
H -0.1982864282 1.2463619058 5.4030349391
H -0.0251996145 -2.7518763297 4.0832115675
H 1.3017492016 1.1698779368 3.4723573874
H -0.2231576818 1.8817237767 2.9565928360
C -0.6991148749 -1.5245504353 6.2016755015
O -2.0589636036 -1.5903509959 5.8389631095
O -0.1386592140 -2.8361578174 6.2852209627
C -0.5219241699 -0.7900385893 7.5395357256
N 0.8877053487 -0.6540866380 7.8733138282
H -2.6039091039 -1.5720091906 6.6435881197
H -0.7411881080 -3.3870145064 6.8123116963
H -0.9643871452 0.2089978181 7.4597189629
H -1.1260740625 -1.3462222200 8.2866659942
H 1.0053161814 -0.0900123909 8.7116053271
H 1.2881750532 -1.5702617248 8.0648781140
C -0.4171122019 -5.5377631585 0.1877506699
O 0.4613214930 -6.1347952340 1.1120919289
O -1.7631382374 -5.8767765081 0.4654612883
C -0.1467482242 -6.0282692197 -1.2401511463
N -1.0031184968 -5.3524999086 -2.2121526156
H 0.3354460681 -7.0980685633 1.0479845310
H -1.9378012571 -5.6634086430 1.3984767082
H 0.9017832470 -5.8218355339 -1.4756725364
H -0.2690713581 -7.1250546666 -1.2052957902
H -0.7954408402 -5.6983166175 -3.1471017869
H -1.9745678538 -5.5930185297 -2.0204822842
N -1.7147403130 0.3587698399 -0.1350702199
C -1.9853735532 0.4983052309 -1.4078488803
O -3.2971955670 0.5487433023 -1.6744430458
C -3.9212176859 0.4323320439 -0.4454706114
C -2.9463910023 0.3046822510 0.4980048951
H -3.0643820837 0.1618327699 1.5592173852
N 0.2704904458 0.4248450811 -1.8956202503
C -0.9267390079 0.5746033603 -2.4073128888
N -1.2278470516 0.8193557134 -3.6917242876
C -0.2159037449 0.8132150597 -4.7537735403
C 1.0335187722 0.0873243018 -4.2471050781
C 1.3941258118 0.5540838629 -2.8295940999
H 0.0364254948 1.8440329648 -5.0217697595
H 0.8489581329 -0.9919544479 -4.2446081926
H 1.8713995727 0.2908579642 -4.9200007181
H -2.1926258483 0.9106966976 -3.9880918761
H 1.7202038808 1.6043600953 -2.8467545777
H 2.2297616398 -0.0277552459 -2.4321929101
C -0.8532811260 0.1878914569 -6.0140733851
O -1.1844948947 -1.1530622154 -5.7336589034
O -2.0356250192 0.9653200624 -6.2106676545
C 0.0505808559 0.2855360225 -7.2524187932
N 0.4652905994 1.6613747966 -7.4805120325
H -1.1656612853 -1.6648295815 -6.5597289051
H -2.6094323850 0.4896996017 -6.8344264605
H 0.9409830230 -0.3323148824 -7.0924538114
H -0.5120288118 -0.1771454249 -8.0903957731
H 1.1110942726 1.7161448649 -8.2645063566
H -0.3459542456 2.2308056142 -7.7136136606
C -5.4320909456 0.3889808685 -0.4505866257
O -5.8303930356 1.3495418630 -1.3988292699
O -5.8922060379 -0.9034049109 -0.8058516867
C -6.0391419772 0.6839890816 0.9274295719
N -5.5900779021 -0.2733900935 1.9358542197
H -6.8026962469 1.3261589694 -1.4379181831
H -5.6037573206 -1.0824603484 -1.7175743702
H -5.7302005955 1.6914930366 1.2214858746
H -7.1322233196 0.7039620938 0.7723576953
H -5.9928747649 -0.0307294918 2.8389691835
H -5.9437997430 -1.1984534617 1.6962059948
