145
# extracted from Terachem optimization
Mn 0.1913186511 -0.0722383268 -0.1853664133
O 0.1657431538 2.2031818641 -0.3017300103
C 1.3675517417 2.8861806615 -0.7807495653
N 1.6606447018 4.0771328279 -0.0546356018
C 0.5521032028 5.0728739593 -0.0337640306
C -0.7859027303 4.3815751341 0.3210699295
C -0.9818975390 3.0848384405 -0.4590392126
H 0.8096237375 5.7613330761 0.7751295792
H 1.9495717122 3.8518279775 0.8958470197
H 1.1669258446 3.1617275937 -1.8265067607
H -1.8371267881 2.5079306579 -0.1044438118
H -1.1167440657 3.2715144986 -1.5336894604
H -1.6223738234 5.0592114975 0.1164928300
H -0.7958467824 4.1496459661 1.3941252810
N 2.2587098534 0.6333248387 -0.6478945794
C 2.5259181697 1.8965616312 -0.7683910169
C 3.8658821967 2.4381508547 -0.9409050068
C 4.8924147603 1.6311454322 -1.3071763327
C 4.5905311402 0.1655321303 -1.4977375535
C 3.4253924765 -0.2740723923 -0.6093273263
H 4.3849212945 -0.0099650200 -2.5641530612
H 5.4672701329 -0.4492902705 -1.2705352283
H 3.9887792713 3.5100983393 -0.8357468517
H 3.7543752000 -0.3274715541 0.4401722079
H 3.0823845283 -1.2725287387 -0.8909413772
C 6.2720578578 2.1656308874 -1.5681880631
C 6.6927368854 2.2494857600 -3.0685344558
N 6.7646000000 0.9089345269 -3.6468605632
C 5.7633476086 3.1305905007 -3.9028282067
H 6.3622433267 3.1708979928 -1.1431795518
H 7.0030999566 1.5303321690 -1.0492432186
H 7.6870519876 2.7285607185 -3.0516318665
H 6.8633500227 0.9348045023 -4.6596460229
H 7.5378599018 0.3647073985 -3.2685710649
H 5.7056818420 4.1397032477 -3.4830383984
H 6.1413297005 3.2235122404 -4.9267971826
H 4.7513104703 2.7133718857 -3.9503468665
C 0.5514624611 5.8853063101 -1.3466030466
C -0.2322596537 7.2242508809 -1.3287297623
N -1.6778297806 6.9849261870 -1.3160171230
C 0.1508740672 8.1531038880 -0.1739891682
H 1.5960122731 6.1203578832 -1.5789146389
H 0.1786464514 5.2809324231 -2.1859141797
H 0.0516363473 7.7331074491 -2.2672398467
H -2.2112534305 7.8019633912 -1.0263243341
H -2.0367062890 6.6621573662 -2.2121172734
H 1.2365305501 8.2802201493 -0.1197456575
H -0.2873746869 9.1460810649 -0.3204380927
H -0.2044687922 7.7732321485 0.7901780372
O 0.5381169534 -2.1702946843 0.5024180758
C 0.7676468236 -2.4746041541 1.9163002290
N 1.9319236587 -3.2611909308 2.1528732254
C 1.9798362889 -4.5418943223 1.3910547289
C 1.6298439320 -4.2926879453 -0.0927487310
C 0.3961892246 -3.4105905316 -0.2505166892
H 3.0230258004 -4.8644074398 1.4462950550
H 2.7744177133 -2.7160323807 1.9787648641
H -0.1120795715 -3.0453892101 2.2472254071
H 0.2414915695 -3.1049572345 -1.2866689938
H -0.5127921804 -3.9155044053 0.1023243363
H 1.4467479676 -5.2454541702 -0.6019672514
H 2.4801586753 -3.8003048094 -0.5835557152
N 0.4678306030 -0.0760768836 2.0509297955
C 0.8030274913 -1.1594567916 2.6793636393
C 1.1834167388 -1.2182815005 4.0829467159
C 0.9148756255 -0.1785730413 4.9109869463
C 0.2459319287 1.0334154501 4.3115607114
C 0.5858913012 1.1767001455 2.8267491991
H -0.8373428737 0.9520420085 4.4871984515
H 0.5484204075 1.9454599878 4.8362674249
H 1.6183876844 -2.1432573693 4.4447350295
H 1.6263418825 1.5197324428 2.7162756229
H -0.0473264127 1.9278111418 2.3520623764
C 1.2063836846 -0.2336511098 6.3838976504
C -0.0441070050 -0.3842526867 7.3087948896
N -0.8873181731 0.8045596153 7.2117743399
C -0.8637666237 -1.6362672956 6.9985236347
H 1.8785573703 -1.0717204180 6.5964801816
H 1.7336823819 0.6846551110 6.6774023365
H 0.3740853171 -0.4946555980 8.3240806740
H -1.7966247667 0.6625014722 7.6468118767
H -0.4573017934 1.6215972839 7.6416276205
H -0.2358090637 -2.5315990459 7.0405795281
H -1.6659897465 -1.7637239474 7.7336350725
H -1.3198738462 -1.5767812490 6.0039024702
C 1.1342824928 -5.6106491429 2.1144690452
C 1.2678993989 -7.0668659747 1.6017792727
N 0.5407361302 -7.2405913253 0.3384528849
C 2.7148900529 -7.5390146644 1.4369104768
H 1.4426031282 -5.5988562018 3.1657230677
H 0.0678930062 -5.3427428841 2.1080589352
H 0.8079898168 -7.6921669169 2.3875397516
H 0.7862843360 -8.1102720057 -0.1310003972
H -0.4691167964 -7.2253960045 0.4682047399
H 3.2870440547 -7.3649354511 2.3535048812
H 2.7448813475 -8.6143475886 1.2315915468
H 3.2185209044 -7.0286306532 0.6084035242
O -2.0866702680 -0.1498608177 -0.1376474978
C -2.7812459093 -0.6494982443 -1.3244075560
N -3.9741089512 0.0727466039 -1.6177537483
C -4.9577883623 0.1155057972 -0.5000826046
C -4.2539982086 0.4920934103 0.8256833981
C -2.9550019218 -0.2839885179 1.0239104844
H -5.6471269944 0.9212251720 -0.7648281748
H -3.7510051263 1.0169032138 -1.9284935176
H -3.0547429757 -1.6912313717 -1.1017796006
H -2.3728913103 0.0903406443 1.8678527069
H -3.1370564567 -1.3554026513 1.1850077084
H -4.9250901355 0.3019366068 1.6706719397
H -4.0230967935 1.5655801484 0.8172940903
N -0.5332640447 -0.5435953035 -2.2315807589
C -1.8002367962 -0.6564192428 -2.4902511934
C -2.3498047769 -0.8398172461 -3.8241138791
C -1.5512511003 -1.2316183740 -4.8486441538
C -0.0856171397 -1.4293630440 -4.5515982566
C 0.3662259978 -0.5226376613 -3.4063629885
H 0.0820417391 -2.4943419536 -4.3326086769
H 0.5258255453 -1.2199607297 -5.4353087801
H -3.4216240280 -0.7289733357 -3.9433153177
H 0.4163426384 0.5204470352 -3.7540460963
H 1.3681648296 -0.7942355123 -3.0667170894
C -2.0959272957 -1.5156971051 -6.2195834690
C -2.2336696940 -3.0247036545 -6.5914183294
N -0.9151525787 -3.6592542092 -6.6164340623
C -3.1622713264 -3.7893042258 -5.6480559800
H -3.0862676204 -1.0595454579 -6.3225498988
H -1.4433903557 -1.0430741413 -6.9662772976
H -2.6986335389 -3.0230950997 -7.5921980668
H -0.9895472263 -4.6718869871 -6.6920736729
H -0.3507482735 -3.3338714567 -7.3997134591
H -4.1527805308 -3.3245982926 -5.6158246036
H -3.2959332000 -4.8195714568 -5.9957613809
H -2.7583217587 -3.8241894272 -4.6300872745
C -5.7732660220 -1.1952501887 -0.4642081714
C -7.1172567301 -1.1493528297 0.3100745076
N -6.8867007760 -1.0777391288 1.7553538507
C -8.0455861064 -0.0124355581 -0.1244741627
H -6.0027538540 -1.4609795843 -1.5020540408
H -5.1729518438 -2.0227930973 -0.0596189787
H -7.6223095818 -2.0991752799 0.0591200744
H -7.7087052019 -0.7699520429 2.2706347166
H -6.5661202481 -1.9589817017 2.1510392078
H -8.1645914342 0.0002079755 -1.2123436089
H -9.0414327084 -0.1444513083 0.3118601348
H -7.6709829420 0.9656913686 0.1968812039
