121
# extracted from Terachem optimization
Mn -0.2981828494 -0.3085895007 -0.2842524055
N 0.2717491519 1.6119166977 -0.7791780854
C 1.5897273994 1.8960776388 -0.5945651957
C 2.1243971543 3.1422661437 -0.9193587285
C 1.3136902825 4.1628126050 -1.4369299016
C -0.0414985724 3.8521012087 -1.6088194166
C -0.5089541122 2.5826627673 -1.2809346519
H 3.1838278326 3.3261675723 -0.7789305341
H -1.5550922656 2.3391597516 -1.4261960798
H -0.7370517471 4.5840111150 -2.0015043277
N 1.7098703409 -0.3456564681 0.0852746517
C 2.3734055567 0.7721946972 -0.0485286817
C 3.7677256202 0.9282314735 0.3483653451
C 4.5478362248 -0.1484318456 0.5808552905
C 3.9222492958 -1.5086605373 0.3785251248
C 2.4300920207 -1.4694889011 0.7106663727
H 4.0795682652 -1.8263844195 -0.6641455509
H 4.3999002370 -2.2702940958 1.0024872400
H 4.1690850197 1.9298134363 0.4551137607
H 2.2925709578 -1.3756899002 1.7981638421
H 1.9521393807 -2.3994246910 0.3996843638
C 6.0029654875 -0.0170640087 0.9642408948
C 6.9334071032 -0.5839060793 -0.1335304341
C 6.3325190011 -0.7070853301 2.2986953359
Cl 5.2430606425 -0.1801116011 3.6494007293
H 6.2202734510 1.0508663589 1.0839842938
H 7.9814341194 -0.4548916282 0.1547394008
H 6.7618097226 -1.6530785299 -0.3003164765
H 6.7791986037 -0.0593881878 -1.0815477829
H 6.2462586406 -1.7936858430 2.2327574624
H 7.3505987357 -0.4595117294 2.6025947904
C 1.9272816261 5.5218195567 -1.7389564450
C 1.9296121048 6.4166839539 -0.4802848760
C 1.3709307909 6.2392308594 -2.9794893712
Cl -0.2654309519 7.0041101605 -2.7615086671
H 2.9784528557 5.3309581525 -2.0015105603
H 2.4419501090 7.3602668699 -0.6930860991
H 0.9108510239 6.6490203954 -0.1589708087
H 2.4518822404 5.9246414341 0.3462994969
H 2.0388411273 7.0592008123 -3.2473105625
H 1.2856375783 5.5634093935 -3.8327651238
N -0.7015450139 -2.1675723327 0.4031571134
C -0.9050829147 -2.2522417001 1.7473651899
C -1.2064200967 -3.4661969330 2.3616053834
C -1.2952527353 -4.6520804187 1.6154117907
C -1.0831372962 -4.5371043567 0.2359653644
C -0.8013489710 -3.2924009901 -0.3202116335
H -1.3865699284 -3.4957013690 3.4303053959
H -0.6435695743 -3.1775147842 -1.3864432236
H -1.1272962284 -5.4022042069 -0.4141814724
N -0.5962393019 0.0794355109 1.6935944508
C -0.7883390580 -0.9638520646 2.4591569915
C -0.8269366721 -0.8845245289 3.9146142066
C -0.9877280624 0.3010656581 4.5402278697
C -1.1706779061 1.5221370671 3.6678618253
C -0.3770892236 1.3696034559 2.3695739351
H -2.2426144385 1.6579932059 3.4550757105
H -0.8445179041 2.4351575390 4.1750884861
H -0.7168606853 -1.7974314773 4.4891564686
H 0.6998180680 1.4437227328 2.5822480767
H -0.6277599245 2.1670637896 1.6679227690
C -1.0479242571 0.4081051120 6.0461486421
C -2.4506919177 0.8428884808 6.5319113588
C -0.0019410046 1.3798072509 6.6165527208
Cl 1.6809792038 1.0097728037 6.0503319457
H -0.8325320924 -0.5853232205 6.4569534696
H -2.4768422441 0.8784622392 7.6255616705
H -2.7214728488 1.8367829748 6.1589308566
H -3.2140660931 0.1321667945 6.2007631179
H -0.2057255645 2.4152813498 6.3363493154
H 0.0123801934 1.3137665152 7.7054879394
C -1.6047141766 -5.9575711239 2.3363294544
C -0.4119823203 -6.4107566042 3.2069415346
C -2.1487563443 -7.0875134701 1.4527736849
Cl -0.9057827592 -7.8789744215 0.3853737371
H -2.4384522094 -5.7344768278 3.0203247579
H -0.6819934067 -7.3076120268 3.7730300175
H 0.4582119801 -6.6477760677 2.5894090435
H -0.1274843765 -5.6333766807 3.9228688494
H -2.5403601306 -7.8852500030 2.0852533411
H -2.9479597929 -6.7400391913 0.7947430421
N -2.2613448533 -0.1009285509 -0.8436605458
C -2.5223493438 -0.2902170724 -2.1659944336
C -3.8198982581 -0.2260449834 -2.6748891603
C -4.9062699743 0.0450122650 -1.8336246559
C -4.6128658488 0.2567612548 -0.4806064926
C -3.2991416425 0.1679455331 -0.0335280089
H -3.9916017348 -0.3985081844 -3.7320196078
H -3.0637267439 0.3106571020 1.0142211672
H -5.3974340009 0.4750460511 0.2334614091
N -0.2252995728 -0.7328850730 -2.2797660838
C -1.3233391651 -0.5824167804 -2.9724644978
C -1.3638977570 -0.6346712965 -4.4287493206
C -0.3350175307 -1.1519105053 -5.1322857628
C 0.8198435057 -1.7248554207 -4.3422594782
C 1.0176063635 -0.9445260047 -3.0409606680
H 0.6188265570 -2.7866171234 -4.1300328213
H 1.7535362665 -1.7026624637 -4.9131188420
H -2.2318417151 -0.2313648342 -4.9388415092
H 1.4343130326 0.0496007387 -3.2598409538
H 1.7295836145 -1.4579764256 -2.3923548192
C -0.3454047617 -1.2073181522 -6.6415523544
C -0.3083081852 -2.6604589994 -7.1683492916
C 0.8196029795 -0.4226601549 -7.2677041048
Cl 0.8843055420 1.3034464363 -6.7099015532
H -1.2758672809 -0.7406092239 -6.9856028984
H -0.3618931353 -2.6663525426 -8.2615482646
H 0.6112745825 -3.1803456473 -6.8772195990
H -1.1605979707 -3.2329142649 -6.7891442405
H 1.7897482433 -0.8641937412 -7.0304057768
H 0.7088820901 -0.3934629688 -8.3526199721
C -6.3246883277 0.0578971985 -2.3785830389
C -7.2294977669 1.1212931570 -1.7372826354
C -6.9504791941 -1.3524659994 -2.3328662574
Cl -7.1206795083 -2.0156291433 -0.6527101219
H -6.2534179444 0.2815005213 -3.4529911503
H -8.1874492609 1.1584513018 -2.2649923335
H -7.4436135340 0.8997307502 -0.6878149473
H -6.7734887098 2.1143119389 -1.7992433153
H -7.9556796772 -1.3267856745 -2.7573662603
H -6.3483706447 -2.0748298104 -2.8872257459
