124
# extracted from Terachem optimization
Mn -0.2166879514 -0.2728664900 -0.3457311456
O -0.0883883247 1.9016268450 -0.1907676822
C 1.1198175065 2.3286236336 0.5256656818
C 1.0436060061 3.8243331260 0.4895679598
C -0.0321640790 4.2393029646 -0.1801162747
C -0.8174943929 3.0651148227 -0.6988115822
H -1.8409570022 3.0299365464 -0.3143190642
H -0.8420989726 3.0126591858 -1.7951421696
H 1.7618132039 4.4724242716 0.9762947160
H 1.0605059330 1.9185636936 1.5425581288
O 2.0070140858 0.2864168247 -0.3457427061
C 2.3281488046 1.7142952888 -0.1852886629
C 3.6267453214 1.8986515006 0.5466771157
C 4.6151455762 1.0055946230 0.3799521894
C 4.3429707476 -0.2013894489 -0.4064283528
C 3.0832020959 -0.5299515845 -0.7083451178
H 3.7825572747 2.7933548401 1.1404608719
H 2.7510345738 -1.4414152859 -1.1874779579
H 5.1525790043 -0.8585752249 -0.7042203598
H 2.3855279682 2.1304540470 -1.2061353326
C 5.9857715662 1.1791774681 1.0071937428
O 5.9906365531 2.1999421220 2.0071916839
C 7.0796074093 1.5333872595 0.0049847918
C 6.8573443008 1.7309920837 -1.3045188578
N 8.3349182629 1.5284780655 0.6109771886
H 6.2793871035 0.2191908311 1.4616382883
H 5.6982644609 1.8097630236 2.8460014782
H 7.6718562673 1.9671025288 -1.9826945141
H 5.8699682651 1.6493591139 -1.7400359186
H 8.3400248240 1.9686243966 1.5256921060
H 9.0827218605 1.8899343624 0.0291403838
C -0.4553253337 5.6661444549 -0.4273408389
O 0.5737043946 6.5903697380 -0.0815150774
C -1.7040851280 6.0861953031 0.3425940810
C -2.2425682503 5.3606234400 1.3362022608
N -2.2372037523 7.2703269651 -0.1627942615
H -0.7052393303 5.7665947435 -1.4969936493
H 1.2063420268 6.6432305982 -0.8161900495
H -3.1214897656 5.7021550263 1.8743037043
H -1.7989936980 4.4295032029 1.6666137759
H -1.5307642164 7.9555340199 -0.4134108151
H -2.9489505527 7.6928951124 0.4236769401
O 0.4022278673 -2.3318539080 -0.1214057743
C 0.8593124520 -2.6132743133 1.2478240785
C 1.0031465137 -4.1042733771 1.2675091525
C 0.6572686956 -4.6449827537 0.0982670666
C 0.2081342348 -3.5782930968 -0.8641103305
H 0.8102301940 -3.5330087085 -1.7758193730
H -0.8508103581 -3.6631460722 -1.1418545590
H 1.3793377876 -4.6559743513 2.1199470954
H 1.8107353695 -2.0829471564 1.3824990716
O -0.3120418058 -0.6147287625 1.8540264778
C -0.1730987027 -2.0376048207 2.2193556384
C 0.1840495936 -2.1706254823 3.6721524715
C -0.3397474583 -1.3048920776 4.5556272384
C -1.1244298686 -0.1747793908 4.0497460886
C -1.0647496083 0.1490632076 2.7542494828
H 0.7923962480 -3.0046104931 4.0053812925
H -1.4985005073 1.0228297886 2.2832377205
H -1.7055297492 0.4406929367 4.7277683530
H -1.1517557999 -2.5017142261 2.0057780222
C -0.1198276383 -1.4316061792 6.0516474453
O 0.9414172793 -2.3366233511 6.3616681778
C -1.3509457377 -1.9134522556 6.8134109555
C -2.5103813984 -2.2472240250 6.2230222723
N -1.1383924062 -1.8679457010 8.1891262559
H 0.1213738196 -0.4331063437 6.4497521739
H 1.7812218518 -1.8523393516 6.3200669397
H -3.3661266591 -2.5712942696 6.8075152415
H -2.6448301826 -2.1919810923 5.1508036747
H -0.2200627361 -2.2001640702 8.4655862031
H -1.8675989728 -2.3036982443 8.7427433354
C 0.6863481064 -6.1087089976 -0.2675213346
O 0.8826524989 -6.9323870785 0.8797004383
C 1.7736588907 -6.4792682695 -1.2722872831
C 2.7542570466 -5.6421032698 -1.6478860272
N 1.5676061380 -7.7560930590 -1.7901644622
H -0.2741507818 -6.3598685631 -0.7483298574
H 0.0299584748 -7.0543651159 1.3275607533
H 3.5177476613 -5.9461687217 -2.3569828223
H 2.8421973186 -4.6461135964 -1.2323569979
H 1.2678539387 -8.4297250613 -1.0918884838
H 2.3475471497 -8.1212746249 -2.3262322349
O -2.3811115413 -0.3073467441 -0.5998734999
C -2.7933371785 0.0215166558 -1.9744947429
C -4.2196273784 -0.4306637835 -2.0317049710
C -4.6083650732 -0.9689738385 -0.8750748266
C -3.4758497342 -0.9630743262 0.1151278900
H -3.6942767599 -0.3881278457 1.0198501189
H -3.1519068067 -1.9704913817 0.4080941004
H -4.8523726542 -0.2941389143 -2.8997419709
H -2.6818876051 1.1066247059 -2.0977479453
O -0.4574666828 -0.2696007718 -2.5639056918
C -1.8284345731 -0.6893040102 -2.9426138891
C -2.1344277854 -0.4528064245 -4.3918529887
C -1.4022311841 0.3747290652 -5.1512021656
C -0.2317259790 1.0326107810 -4.5640759622
C 0.1931908818 0.6895935871 -3.3474566943
H -2.9787122310 -0.9865888169 -4.8162577973
H 1.0892797568 1.0453981913 -2.8562576804
H 0.3402402309 1.7517380608 -5.1402067247
H -1.8496959655 -1.7596636401 -2.7063502753
C -1.7093707301 0.6202195689 -6.6153428100
O -3.0296911590 0.2070247044 -6.9705561779
C -0.7530689236 -0.0741231021 -7.5793839950
C 0.2504073510 -0.8760460804 -7.1868723575
N -1.0020707848 0.3112212848 -8.8946078227
H -1.6018628943 1.7021536889 -6.7986187829
H -3.6479013327 0.9208814203 -6.7463212798
H 0.9163771559 -1.3363308750 -7.9104845353
H 0.4437381336 -1.0841111164 -6.1430554086
H -1.9910868422 0.3616122702 -9.1169683254
H -0.4963262064 -0.2221925829 -9.5930078279
C -5.9731770198 -1.5146071560 -0.5365980051
O -6.7592206768 -1.7303879232 -1.7081902639
C -6.7913856762 -0.6164051712 0.3877556228
C -6.4079838941 0.6175424576 0.7532255584
N -7.9273951403 -1.2764205622 0.8513487853
H -5.8391349883 -2.4682757648 0.0011545586
H -6.5082293876 -2.5819730939 -2.1006814551
H -7.0199306275 1.2293126424 1.4086780461
H -5.4923251520 1.0620766664 0.3846064850
H -8.3902658652 -1.8244339386 0.1325708312
H -8.5923140485 -0.6774507451 1.3288439545
