148
# extracted from Terachem optimization
Mn -0.1171308936 -0.2563959046 -0.0927840590
N 0.1494614976 1.7516066039 -0.2194730232
C 1.4258202855 2.0663070072 -0.1173224284
O 1.6330218321 3.3932787455 -0.1657694584
C 0.3824222207 3.9726041953 -0.2910088901
C -0.5275038147 2.9510311525 -0.3313175491
H -1.6038680163 2.9984951145 -0.4057233225
N 1.9201182841 -0.1519795309 0.0961958049
C 2.4319478025 1.0561997010 0.0550100747
C 3.9052197805 1.3410350233 0.1321292532
C 4.6396164688 0.2894369150 0.9983623966
C 4.0689335233 -1.0803969894 0.7050761419
C 2.8028948985 -1.2387905525 0.2818900964
H 4.3884090686 0.5053974223 2.0521577480
H 4.3207998019 1.3435022073 -0.8862091385
H 4.0607652842 2.3495726517 0.5227350413
H 2.3557422962 -2.2098830431 0.1082025059
H 4.6820007019 -1.9579615830 0.8708148915
C 6.2098269585 0.3673492606 0.9464505333
C 6.6570431777 1.8438331612 1.0032098814
C 6.7688631679 -0.3470785812 2.1962026276
C 6.8515989991 -0.2691549424 -0.3230829703
O 6.7854931146 -1.6921562784 -0.1967730110
N 6.2649695979 0.2072896067 -1.5724280473
H 6.1692552319 2.3664202228 1.8348074740
H 7.7371985747 1.9038494611 1.1747893234
H 6.4391234284 2.3790266714 0.0749157479
H 6.4021685891 -1.3713337505 2.2963654205
H 7.8617310751 -0.4004739226 2.1519572263
H 6.4997142517 0.2091948447 3.1018133869
H 7.9017164720 0.0533548973 -0.3220154017
H 7.3888283652 -2.0835438469 -0.8486172396
H 6.9422963700 0.1601051806 -2.3312412436
H 5.4955677896 -0.4107570643 -1.8270738824
C 0.2783404102 5.4675846375 -0.3548757018
C 1.0699809901 6.0023578572 -1.5697381355
C -1.2130999830 5.8384254698 -0.4972721035
C 0.8285572358 6.1058334642 0.9633882754
O 0.1309862330 5.4482372877 2.0311296530
N 2.2638274618 6.0530938790 1.0623179545
H 0.6455789138 5.6149069374 -2.5023061495
H 1.0065734679 7.0950003428 -1.5957978198
H 2.1254195884 5.7332674480 -1.5100548441
H -1.7899544567 5.5114990325 0.3716615625
H -1.3115610063 6.9251248267 -0.5822812873
H -1.6410481194 5.3974572252 -1.4041963838
H 0.5538802784 7.1686016208 0.9280242370
H 0.3257826555 5.9281580226 2.8522027777
H 2.6201548153 6.7201363393 1.7416827966
H 2.5823181178 5.1241012396 1.3250968212
N -0.3305047528 -2.2724034505 0.1584683247
C -0.4704760809 -2.5736578996 1.4346012352
O -0.6277874523 -3.8918568598 1.6406602176
C -0.5786725729 -4.4840374335 0.3910679614
C -0.4004045647 -3.4753020259 -0.5160849983
H -0.3053518368 -3.5376977350 -1.5877926572
N -0.3199166220 -0.3564716903 1.9665437181
C -0.4793170735 -1.5628497628 2.4540541405
C -0.7136747363 -1.8507397309 3.9102085594
C 0.0203298365 -0.8232441989 4.8027834358
C -0.1526768686 0.5544103827 4.2011999960
C -0.3118715747 0.7238222504 2.8766268836
H 1.0993357113 -1.0518357348 4.7291217623
H -1.7958566291 -1.8231463750 4.1043358866
H -0.3956167025 -2.8709742381 4.1373839172
H -0.3900078995 1.6992311833 2.4125813911
H -0.1131911481 1.4253973285 4.8440380159
C -0.2898074676 -0.9228781428 6.3398522285
C -0.2886456884 -2.4055270921 6.7676219601
C 0.8412051959 -0.2026266097 7.1051464645
C -1.6556316188 -0.3155729487 6.7796195115
O -1.5530712353 1.1097184383 6.7270034200
N -2.7924674930 -0.8166052902 6.0125691660
H 0.6187227639 -2.9148761478 6.4206103668
H -0.3011956472 -2.4833672863 7.8602795426
H -1.1615916992 -2.9434572856 6.3880477519
H 0.9719522808 0.8341470982 6.7854672260
H 0.6274417373 -0.1840467565 8.1790723140
H 1.7903292138 -0.7328538252 6.9648044703
H -1.8043389587 -0.6379066078 7.8194355843
H -2.2898105956 1.4868332356 7.2341480332
H -3.6391865435 -0.8154605961 6.5779681057
H -2.9603454560 -0.1807274397 5.2340078530
C -0.7053595518 -5.9745328514 0.2897159219
C -1.9798470802 -6.4519589432 1.0198370010
C -0.7850577872 -6.3523277795 -1.2047265363
C 0.5576568821 -6.6596394857 0.9119986329
O 1.6847386441 -6.0566555450 0.2593113547
N 0.5897184914 -6.5843177988 2.3494764779
H -2.8721359086 -6.0208995641 0.5530616405
H -2.0543908015 -7.5418192169 0.9492932426
H -1.9569936887 -6.1879747887 2.0777861049
H 0.1267468245 -6.0731587320 -1.7389141947
H -0.9125416965 -7.4350423235 -1.3002567671
H -1.6476749414 -5.8768483886 -1.6837513213
H 0.4919294974 -7.7241460420 0.6508053448
H 2.4708721933 -6.5824431286 0.4782641144
H 1.2223060757 -7.2721640650 2.7497651501
H 0.8798731691 -5.6617347874 2.6637733128
N -2.1317534880 0.0005325072 -0.3975620231
C -2.3873499459 0.0404417874 -1.6906824773
O -3.6613318185 0.3756958191 -1.9551236096
C -4.2644162176 0.5832471608 -0.7286061399
C -3.3147680480 0.3395155417 0.2257725223
H -3.4003178913 0.4039757983 1.2982476047
N -0.1906523068 -0.3933468407 -2.1437259516
C -1.3733192129 -0.2096165494 -2.6773255884
C -1.6398843084 -0.2792609813 -4.1546424421
C -0.4117865308 0.2187025417 -4.9509277009
C 0.8374525445 -0.3671966927 -4.3298473334
C 0.8930892928 -0.6415293887 -3.0144149969
H -0.3490732144 1.3096556264 -4.7857502368
H -1.8793576468 -1.3165857998 -4.4293899588
H -2.5310865448 0.3070978599 -4.3902269300
H 1.7861874865 -1.0098670393 -2.5243984451
H 1.7126360385 -0.5324188622 -4.9464966095
C -0.5096019348 0.0710561731 -6.5111818922
C -1.9177780757 0.4932145508 -6.9805481315
C 0.5159513780 1.0330677504 -7.1492265723
C -0.2498871642 -1.3677526136 -7.0551713483
O 1.1516807878 -1.6365399111 -6.9681228748
N -1.0537768828 -2.3910409738 -6.3944210795
H -2.1894439730 1.4743515456 -6.5722364640
H -1.9392442812 0.5821627671 -8.0719977271
H -2.6833515311 -0.2319979631 -6.6917740206
H 1.5362466883 0.8490792215 -6.8043696527
H 0.5190175757 0.9224440403 -8.2387734161
H 0.2530009918 2.0729298675 -6.9224592323
H -0.5593411363 -1.3485841972 -8.1091221508
H 1.3502130470 -2.4042544628 -7.5278767841
H -1.2419390498 -3.1687477718 -7.0241308651
H -0.5191315719 -2.7699036979 -5.6136735940
C -5.6848928314 1.0581049394 -0.7014724137
C -6.5780534819 0.1433735324 -1.5666930446
C -6.1807570552 1.0432307916 0.7600398470
C -5.7489428320 2.5311044940 -1.2349029272
O -4.7810613748 3.2704910424 -0.4673900888
N -5.5719496330 2.6268832564 -2.6597681124
H -6.5942142801 -0.8719114130 -1.1561917163
H -7.6039547226 0.5253342210 -1.5648080909
H -6.2378347124 0.1119588437 -2.6025356085
H -5.6011653442 1.7231226844 1.3895702045
H -7.2263892792 1.3645044008 0.7899035162
H -6.1345420475 0.0326634382 1.1795848446
H -6.7607770304 2.8947524582 -1.0139922541
H -4.9680129091 4.2155292117 -0.5861583151
H -5.9214698928 3.5085428332 -3.0258241814
H -4.5921199769 2.5397890619 -2.9165676100
