169
# extracted from Terachem optimization
Mn -0.6876245289 -0.2590409760 -0.3379297657
O -0.6116795672 1.9371424539 -0.3053265086
C 0.4187480893 2.7829299201 -0.9652707248
O -0.1828485124 3.8290876719 -1.6222271764
C -0.7309615615 4.8097063283 -0.7100467881
C -1.5306966498 4.0704343467 0.3208432207
C -1.4723276955 2.7434683922 0.4502046106
H 0.0917764671 5.3768722325 -0.2590104080
H -2.0748437723 2.1707872870 1.1376472560
H -2.1962153468 4.6015768038 0.9901333325
H 0.9109563860 2.1443843325 -1.6906486727
H 1.0902923415 3.1120587673 -0.1637366346
C -1.5462252474 5.9082747756 -1.5420500166
N -2.5018037573 5.3013514730 -2.4045274668
C -2.2515873100 6.8253302870 -0.5249679204
C -0.5126183527 6.6883581477 -2.5065860074
O 0.6651015648 6.8360910205 -1.7605727390
O -0.3138121113 5.9070428650 -3.6650470665
C -1.0666369666 8.0343004624 -2.9794339873
H -2.1676874048 5.0712781125 -3.3399669752
H -3.4149893066 4.9420168038 -2.0804435467
H -1.5331186548 7.2333086434 0.1920938306
H -2.7342744376 7.6566146552 -1.0394752588
H -3.0301410213 6.2856839251 0.0211476268
H 1.1853296724 7.5728260963 -2.1247875554
H 0.4997694214 5.3606683470 -3.5977961346
H -2.0349739236 7.9104530952 -3.4724318024
H -1.1647965868 8.7438662762 -2.1557306511
H -0.3724488132 8.4438079623 -3.7201885874
O 1.5280771803 -0.2460582612 -0.3570903372
C 2.4367644984 0.1569501695 0.7351529809
O 3.2364012046 -0.8952358155 1.1064149476
C 4.2305313053 -1.2404262761 0.1023753578
C 3.5283810828 -1.2594079973 -1.2277877298
C 2.2868086506 -0.8123586876 -1.4042989677
H 5.0049989130 -0.4661494962 0.1116391723
H 1.7591852571 -0.7754261103 -2.3458254885
H 4.0656869366 -1.5938503936 -2.1072059307
H 1.7995088263 0.4269953771 1.5742366800
H 3.0115839451 1.0069561995 0.3479436589
C 4.9334311422 -2.5818815500 0.5087319539
N 3.9365970410 -3.5990335771 0.7365982625
C 5.8487464960 -2.9986217136 -0.6547781446
C 5.8213230430 -2.3357768025 1.8779473237
O 6.2235355539 -0.9849251938 1.8107104897
O 5.0724311794 -2.6142310961 3.0143520876
C 7.0319195060 -3.2744881943 1.9584621066
H 3.5322885169 -3.5744073949 1.6763435186
H 4.2573661185 -4.5390023120 0.5198630780
H 6.5779735477 -2.2184891904 -0.8924462532
H 6.4012037410 -3.9059618055 -0.4044873876
H 5.2674510921 -3.2213537363 -1.5535208487
H 6.9519697180 -0.8512104131 2.4416309400
H 4.4552465570 -1.8989532077 3.3003910290
H 6.7279749592 -4.3237326216 1.9088758029
H 7.7654709342 -3.0680091392 1.1779117859
H 7.5018553957 -3.1223942970 2.9355205107
O -0.6787805417 -2.3554427693 -0.4063291881
C 0.4333938255 -3.2924455566 -0.0078902363
O 0.0007682581 -4.1412823816 0.9718785517
C -0.9946168653 -5.1110594280 0.5157032007
C -1.9621006000 -4.3849715008 -0.3736173569
C -1.8113481704 -3.1229137756 -0.7644082441
H -0.4707161849 -5.8850532844 -0.0568275644
H -2.4901074233 -2.5854044341 -1.4086036900
H -2.8129585934 -4.9245405170 -0.7725671402
H 1.2376465011 -2.6691917784 0.3689006407
H 0.7039229564 -3.8021542952 -0.9387462913
C -1.6394298939 -5.7998038305 1.7678045635
N -2.1054730344 -4.7480605371 2.6773066363
C -2.8460339309 -6.6252800507 1.2841114957
C -0.5775047816 -6.7625164436 2.4582649671
O 0.0811119288 -7.4251134110 1.3994557657
O 0.3602929597 -6.0200481703 3.2329361899
C -1.1860272451 -7.7539813333 3.4505588708
H -1.3469409087 -4.4899047210 3.3081083591
H -2.8624953040 -5.1027825788 3.2595065402
H -2.5528704645 -7.3574907549 0.5264487960
H -3.2918926608 -7.1703542432 2.1184176995
H -3.6280383290 -5.9775856680 0.8798786310
H 0.5878326626 -8.1685947495 1.7686474019
H 0.9669645690 -5.5277795313 2.6519625135
H -1.7982063443 -7.2475615273 4.2025562825
H -1.7876859734 -8.5123065748 2.9471051926
H -0.3679483335 -8.2518246067 3.9807996995
O -2.9674460188 -0.2402762267 -0.3531338219
C -3.8140221160 0.0735396472 0.8140542638
O -4.4163335914 1.2969492671 0.6401917874
C -5.4360547386 1.3082062354 -0.4048031924
C -4.9592340384 0.4135704211 -1.5187984211
C -3.7881122431 -0.2254516202 -1.4959735093
H -6.3755110492 0.9479725998 0.0283000475
H -3.3912333516 -0.8329150480 -2.2991014247
H -5.5880946316 0.2811289843 -2.3925317339
H -3.1376373331 0.1229487260 1.6630226994
H -4.5281476103 -0.7530876944 0.8970930553
C -5.6468278180 2.8008823020 -0.8709468252
N -4.4158310369 3.3308795390 -1.4848735439
C -6.7879365979 2.8311036408 -1.8984084719
C -5.9940079387 3.7140931209 0.3706292976
O -6.9566522976 2.9810745035 1.0897885483
O -4.8312121581 3.9214709692 1.1781223497
C -6.4918998128 5.1074647453 -0.0007170892
H -3.6539578995 3.1896146015 -0.8232921356
H -4.2047103439 2.7772946056 -2.3157562618
H -7.7333820901 2.5332767427 -1.4379557748
H -6.9008082030 3.8379782343 -2.3045240029
H -6.5944075323 2.1668329649 -2.7468935131
H -7.3858946560 3.5692116619 1.7344940565
H -4.7101658874 3.0845997262 1.6578746040
H -5.7854169269 5.6207244395 -0.6573739244
H -7.4667029319 5.0655405225 -0.4895197663
H -6.5857232168 5.6946286579 0.9186132770
O -0.8102561559 -0.2686319766 2.0024232990
C -1.2231614569 -1.5342877235 2.6554226330
O -0.1277210579 -2.0905723364 3.2543864490
C 0.3131270949 -1.3873664329 4.4486830827
C 0.2154013442 0.0878934448 4.1507164803
C -0.2544753782 0.5671074790 2.9949130088
H -0.3550093898 -1.6754053713 5.2681876897
H -0.3134857236 1.6160246485 2.7295511489
H 0.5392357094 0.8013883102 4.9023760846
H -1.5831882426 -2.2102606232 1.8867432327
H -2.0064674122 -1.2600309460 3.3718409541
C 1.7734024153 -1.8578372334 4.8236699895
N 2.7958108863 -1.2209716665 3.9851650973
C 2.0163354262 -1.4757088327 6.2911328658
C 1.8897658313 -3.4190863297 4.6164532126
O 0.6993858595 -3.9530418995 5.1479548665
O 1.9729769856 -3.7041399831 3.2041831807
C 3.1185367461 -4.0599142622 5.2505322498
H 2.5644553273 -1.3223632901 3.0021505656
H 2.8793010823 -0.2295446829 4.2015831252
H 1.3889193185 -2.0728167689 6.9573225479
H 3.0637910461 -1.6430080193 6.5497447806
H 1.7984788188 -0.4165565257 6.4759577150
H 0.6574193247 -4.8970001454 4.8956513829
H 1.1141548903 -3.4218794961 2.8391547015
H 4.0471043989 -3.6204000392 4.8843824377
H 3.0740852174 -3.9825719269 6.3382586646
H 3.1168154105 -5.1229014881 4.9870919450
O -0.7878828958 -0.1784877524 -2.6746617110
C -1.3188194724 1.0213934506 -3.3245656457
O -0.2951664730 1.7000147350 -3.9393225932
C 0.2575982550 1.0178486057 -5.1061963455
C 0.2847025046 -0.4565276847 -4.8025417044
C -0.1720276213 -0.9788604791 -3.6618686263
H -0.4056382201 1.2262359659 -5.9531054901
H -0.1738964816 -2.0293506291 -3.3967105339
H 0.6647732353 -1.1389817274 -5.5556565387
H -1.7286700308 1.6510876848 -2.5392434139
H -2.0859798648 0.6818759180 -4.0306567148
C 1.6715387302 1.6479361843 -5.4374225417
N 2.7100346314 1.3559251012 -4.4650755113
C 2.0952039170 1.0838911862 -6.8057564817
C 1.5399085797 3.2205889360 -5.4986397303
O 0.3704557302 3.4723960707 -6.2423605020
O 1.3904368754 3.7347963512 -4.1577467548
C 2.7610213654 3.9228250466 -6.0777022780
H 2.5477554334 1.8243726117 -3.5804580395
H 2.8634786974 0.3617734962 -4.3325244832
H 1.4026072194 1.3883845170 -7.5945654323
H 3.0968860101 1.4362659192 -7.0558356905
H 2.1406809398 -0.0106279829 -6.7894210170
H 0.3801382058 4.4007982636 -6.5293680025
H 0.5571847680 3.3439820669 -3.8381024027
H 3.6696805098 3.6156499470 -5.5566195081
H 2.8673620477 3.7087532675 -7.1426973582
H 2.6382346366 5.0041096741 -5.9502540375
