145
# extracted from Terachem optimization
Mn 0.2674765564 -0.0257947537 -0.1965740233
O 0.2390119335 2.2343796943 -0.3163758329
C 1.4450551558 2.9258744353 -0.7621541554
N 1.7147011717 4.1157239106 -0.0215183142
C 0.5933459080 5.1007485156 -0.0343315502
C -0.7428549138 4.3985405717 0.3010898811
C -0.9143979920 3.1073412010 -0.4887239826
H 0.8247935510 5.8022914064 0.7722956817
H 1.9603418352 3.8788518180 0.9386901170
H 1.2688444926 3.2074829988 -1.8103365666
H -1.7687962678 2.5178739252 -0.1542532247
H -1.0314053241 3.3049848169 -1.5628201614
H -1.5817139819 5.0620018454 0.0698599888
H -0.7634454010 4.1600328634 1.3730834471
N 2.3414530163 0.6776951493 -0.6297004148
C 2.6067094414 1.9419638674 -0.7345704599
C 3.9468972685 2.4877772461 -0.8879991153
C 4.9716671105 1.6867971437 -1.2692877699
C 4.6736374672 0.2215981541 -1.4679036536
C 3.5105839054 -0.2251499877 -0.5834947251
H 4.4756148927 0.0564193243 -2.5365693590
H 5.5536009253 -0.3901713477 -1.2421290655
H 4.0669613878 3.5589158497 -0.7720263194
H 3.8351241085 -0.2758488331 0.4678939415
H 3.1721316118 -1.2253581000 -0.8645849847
C 6.3440535261 2.2284044177 -1.5537849151
C 6.6899941642 2.4151831084 -3.0610806937
N 6.6554564558 1.1140584868 -3.7462820700
C 5.7445137939 3.3883243239 -3.7660646188
H 6.4612156414 3.2011549565 -1.0632816930
H 7.0925723603 1.5536225806 -1.1163878230
H 7.6963655308 2.8669116512 -3.0663802252
H 6.7792950807 1.2553095335 -4.7482216992
H 7.4466738347 0.5429067670 -3.4488480558
H 5.7264907091 4.3580518162 -3.2575037902
H 6.0764793910 3.5637840557 -4.7957317808
H 4.7236024418 2.9929485906 -3.8034781673
C 0.6257763229 5.8971995212 -1.3545396029
C -0.3496307206 7.0920748663 -1.4801521701
N -1.7237821233 6.6031965657 -1.7154686826
C -0.3410201419 8.0192388618 -0.2611737546
H 1.6489711284 6.2749781432 -1.4652014875
H 0.4553272512 5.2344605497 -2.2152456282
H 0.0175815406 7.6824707878 -2.3365302034
H -2.3766268726 7.3838512638 -1.6486391644
H -1.8037825148 6.2632053690 -2.6739520168
H 0.6767579553 8.3433622283 -0.0189588558
H -0.9323527677 8.9195779576 -0.4622188211
H -0.7718933826 7.5328944660 0.6211950821
O 0.6008268225 -2.1246677361 0.4819998269
C 0.7955509906 -2.4418732534 1.8955219956
N 1.9646619270 -3.2175310900 2.1547993712
C 2.0361891337 -4.4900652021 1.3794583959
C 1.7366409564 -4.2225688680 -0.1121708038
C 0.4983536995 -3.3543213306 -0.2936803463
H 3.0767121256 -4.8159360572 1.4657208857
H 2.8005067233 -2.6590297119 1.9896130842
H -0.0833142814 -3.0281361403 2.1986872020
H 0.3691198543 -3.0321646038 -1.3281940455
H -0.4120280928 -3.8807084792 0.0217017925
H 1.5751806532 -5.1689181327 -0.6377341255
H 2.5969751546 -3.7101605534 -0.5645100514
N 0.5340681582 -0.0403254185 2.0383230982
C 0.7968929515 -1.1374300050 2.6749903347
C 1.0543847527 -1.2209068297 4.1054192799
C 0.6984512788 -0.1986159407 4.9205174156
C 0.1148356361 1.0347994555 4.2757542429
C 0.6174980415 1.1973787477 2.8429550958
H -0.9808935428 0.9667646056 4.3339872800
H 0.3720807959 1.9300213863 4.8518313828
H 1.4485628858 -2.1548724924 4.4905530257
H 1.6763777815 1.5007168576 2.8503918343
H 0.0651568557 1.9784120079 2.3180916160
C 0.8098139020 -0.2902247947 6.4171517891
C -0.5307984800 -0.5112363094 7.1770932385
N -1.4351435417 0.6227069921 6.9348979172
C -1.2283352300 -1.8128044152 6.7791075039
H 1.4857081241 -1.1098831570 6.6856120980
H 1.2625076312 0.6365040567 6.7972467494
H -0.2430476774 -0.5999841028 8.2383329681
H -2.3399525349 0.4312226320 7.3639279791
H -1.0795920622 1.4561189181 7.4036691382
H -0.5687981095 -2.6744158885 6.9279626688
H -2.1191609450 -1.9708159714 7.3975337704
H -1.5445201951 -1.7906158718 5.7302510293
C 1.1649439369 -5.5630474839 2.0644184605
C 1.2561189205 -7.0027037942 1.5056374923
N 0.5213411654 -7.0967251941 0.2278181701
C 2.6938341490 -7.4902857380 1.3047929316
H 1.4668790448 -5.5840024159 3.1181266161
H 0.1055360644 -5.2684095347 2.0607470521
H 0.8021668252 -7.6466075383 2.2778218520
H 0.6985058555 -8.0054674076 -0.1999817149
H -0.4820583807 -7.0729423921 0.4104355918
H 3.2841911463 -7.3604613603 2.2180250020
H 2.7039604310 -8.5574357840 1.0564949977
H 3.1921831163 -6.9573361878 0.4873263508
O -2.0048265435 -0.0980010078 -0.1427562981
C -2.6976025153 -0.6110964289 -1.3213519571
N -3.9066902499 0.0885238607 -1.6105997058
C -4.8812906868 0.0968011482 -0.4804413901
C -4.1783962861 0.5097662261 0.8330713315
C -2.8617663807 -0.2320819189 1.0287525719
H -5.6074005404 0.8722681904 -0.7403858493
H -3.6951303889 1.0442492342 -1.8946945029
H -2.9522526969 -1.6567452717 -1.0967916365
H -2.2796553785 0.1679432143 1.8607081473
H -3.0217542124 -1.3035012696 1.2091707746
H -4.8308633842 0.2935042270 1.6849107964
H -3.9748689113 1.5889588279 0.8085773973
N -0.4568348474 -0.4855653079 -2.2418993889
C -1.7236369592 -0.6073857507 -2.4927142986
C -2.2774230610 -0.7998060409 -3.8236602077
C -1.4806343277 -1.2021046990 -4.8443398209
C -0.0117612119 -1.3827256573 -4.5534208232
C 0.4360863534 -0.4607216373 -3.4210342148
H 0.1631898163 -2.4450197663 -4.3303129847
H 0.5913343350 -1.1754220256 -5.4437752733
H -3.3502999135 -0.6964294761 -3.9388779677
H 0.4697247157 0.5803792338 -3.7773696715
H 1.4435984387 -0.7141021901 -3.0835691660
C -2.0311414271 -1.5236917202 -6.2047614238
C -2.2053569031 -3.0404223854 -6.5155657704
N -0.8976324168 -3.7119703671 -6.4754681023
C -3.1652554589 -3.7333908340 -5.5478088475
H -3.0098203985 -1.0457214228 -6.3247400089
H -1.3668554385 -1.0967992580 -6.9685981679
H -2.6646435705 -3.0718949835 -7.5180375071
H -1.0294935370 -4.7180861682 -6.5724939752
H -0.3355083010 -3.4289421378 -7.2783025916
H -4.1395864816 -3.2336124881 -5.5340331046
H -3.3331569269 -4.7716282588 -5.8561549123
H -2.7627726844 -3.7452586138 -4.5290362245
C -5.6390402496 -1.2457349081 -0.4425606923
C -6.8501851922 -1.3432109550 0.5166203047
N -6.3840700981 -1.4574734286 1.9135671062
C -7.8205254783 -0.1639314377 0.4009905125
H -5.9930352201 -1.4346923290 -1.4628077531
H -4.9568942535 -2.0737985510 -0.2011369083
H -7.4005514714 -2.2460686719 0.2019655048
H -7.1808364606 -1.3753083440 2.5446516943
H -6.0054640301 -2.3914203891 2.0713258650
H -8.1277399807 -0.0048904599 -0.6381490787
H -8.7271156618 -0.3580328989 0.9850263446
H -7.3768717410 0.7631110039 0.7807265599
