106
# extracted from Terachem optimization
Mn -0.0088552917 -0.0503775897 -0.1838529540
N 0.4487811518 1.9306774228 -0.4100154425
C 1.7197809885 2.2337458556 -0.3585107289
O 1.9521650374 3.5407661317 -0.4778944981
C 0.7089841723 4.1413219846 -0.6152443987
C -0.2165929602 3.1449648260 -0.5745711404
H -1.2895220609 3.2205181612 -0.6412228592
O 2.0721435537 -0.0337726543 0.0420641421
C 2.8177921576 1.2309089549 -0.1927802925
N 3.7360288445 1.5763859129 0.8250765398
C 4.7288896497 0.5115057549 1.1334956950
C 3.9927928812 -0.8259857816 1.3581362373
C 3.0085104762 -1.1410704655 0.2363630988
H 5.1995464169 0.8005318711 2.0753160303
H 3.2577550732 1.8800043421 1.6704165304
H 3.3594997443 1.0793478119 -1.1352707296
H 2.3856990759 -2.0048291662 0.4652032133
H 3.5241008726 -1.3238554360 -0.7141712790
H 4.6989134598 -1.6537736093 1.4557225593
H 3.4387368243 -0.7543956117 2.3034337596
C 5.8376437593 0.5439180599 0.0600026070
C 6.9818381264 -0.4453422338 0.2657091675
O 7.2507332861 -0.5631435561 1.6092858421
Cl 6.5544572793 -2.1175808816 -0.4864188085
H 5.4516002395 0.4054239624 -0.9537659346
H 6.2722632761 1.5498886013 0.0955041693
H 7.8547187286 -0.1599218715 -0.3258703235
H 8.0817512286 -1.0510367764 1.7380512214
C 0.6897587125 5.6321985699 -0.7067854263
C -0.3335470866 6.1589875230 -1.7129664882
O -1.5917074567 5.7095888947 -1.3244223611
Cl -0.2474139630 7.9833280320 -1.7214614302
H 1.6860488465 5.9853603893 -0.9841350116
H 0.4495121311 6.0643568469 0.2724372222
H -0.0824994997 5.8666066781 -2.7381543202
H -2.2604176952 6.0950433461 -1.9158122191
N -0.2983413324 -2.0473323853 0.2658995688
C -0.6337597202 -2.2982366835 1.5041293604
O -0.7592420952 -3.6021666071 1.7618973953
C -0.4740582429 -4.2571135665 0.5750682206
C -0.1886321849 -3.2970791701 -0.3459137618
H 0.1013827471 -3.4248695647 -1.3754837177
O -0.2747077502 -0.0363620206 1.9392839879
C -0.8635376783 -1.2515528678 2.5499689849
N -0.3267760607 -1.5966258762 3.8125923127
C -0.4063426626 -0.5029488165 4.8186997511
C 0.1479187490 0.8023408983 4.2083749723
C -0.4426380817 1.1051518067 2.8353572540
H 0.2570769446 -0.7949686437 5.6351909333
H 0.6265455025 -1.9429331406 3.7292811327
H -1.9360434299 -1.0419102197 2.6599961416
H 0.0664864781 1.9357163548 2.3453478427
H -1.5114567328 1.3427734393 2.8990346241
H -0.0272030121 1.6532497201 4.8707799953
H 1.2350830599 0.6893820002 4.1031227449
C -1.8369637664 -0.4793555614 5.4023219089
C -2.1140077884 0.6080158593 6.4360792983
O -0.9928593299 0.8160646485 7.2010187030
Cl -2.6509632052 2.2027630472 5.5720236782
H -2.6071767933 -0.4119799845 4.6290201820
H -1.9821472722 -1.4453490353 5.9002357285
H -3.0043010703 0.3761542107 7.0246623270
H -1.2124875501 1.3651901153 7.9728228679
C -0.4901915321 -5.7504462690 0.6145339429
C -0.8772843370 -6.3799788353 -0.7225582898
O 0.0409790147 -5.9566104123 -1.6790328158
Cl -0.8616635879 -8.1953800589 -0.5340083933
H -1.1889848929 -6.0812135462 1.3876293359
H 0.5028854843 -6.1270023236 0.8901137731
H -1.9097337348 -6.1403144512 -0.9988535219
H -0.1434321082 -6.4097082666 -2.5195319233
N -2.0116639809 0.1801001418 -0.5985819066
C -2.3616066856 -0.0885731113 -1.8279884681
O -3.6469936739 0.1793385436 -2.0771295675
C -4.1716433547 0.6738903785 -0.8948835967
C -3.1613660478 0.6753724337 0.0159732878
H -3.1833778092 1.0107538255 1.0394927998
O -0.0906623113 -0.3710812008 -2.3059962337
C -1.4365767222 -0.6285785857 -2.8747514816
N -1.6558757576 -0.0659907637 -4.1539067372
C -0.6494397565 -0.4789572304 -5.1702175126
C 0.7712852295 -0.2629562415 -4.6050428016
C 0.9420417637 -0.8631881301 -3.2146905439
H -0.7767013940 0.1985336164 -6.0171096217
H -1.7281443977 0.9480757938 -4.1062597560
H -1.5254929373 -1.7210967445 -2.9396667366
H 1.8889965416 -0.5717043702 -2.7574841145
H 0.8949615307 -1.9584876799 -3.2451714153
H 1.5281321347 -0.6808154963 -5.2731860835
H 0.9504113709 0.8185033186 -4.5462806414
C -1.0248991261 -1.8914115823 -5.6740163735
C -0.0778142061 -2.5167064722 -6.6924946399
O 0.3852033075 -1.5487875041 -7.5489825894
Cl 1.3539785387 -3.3848667445 -5.8122410358
H -1.1572193270 -2.6056583513 -4.8567906824
H -2.0020196187 -1.7949083351 -6.1621196689
H -0.5515602521 -3.3576606425 -7.2038889769
H 0.8419598593 -1.9604747784 -8.3022204748
C -5.6019977119 1.1036219753 -0.9274834957
C -6.2636119235 1.0854689764 0.4494341948
O -5.5341898651 1.9226931939 1.2888581640
Cl -7.9893041388 1.6527403399 0.2714252646
H -6.1595876718 0.4523479971 -1.6066134801
H -5.6739519329 2.1239724611 -1.3247234829
H -6.3480049367 0.0675232810 0.8448714983
H -5.9895387033 1.9865180613 2.1458644633
