169
# extracted from Terachem optimization
Mn -0.8879722389 -0.3177649013 -0.2942134969
O -0.8207557479 1.9690617174 -0.3078130645
C 0.3447296355 2.7963768950 -0.7099310425
O -0.0360437303 3.7476952039 -1.6198708023
C -0.8507303696 4.8060458608 -1.0267223786
C -1.8987804699 4.1238553764 -0.1919451169
C -1.8789990127 2.8166971732 0.0739855666
H -0.1918208300 5.4277466600 -0.4096945513
H -2.6662284874 2.2838026799 0.5882238734
H -2.7435841209 4.6770316610 0.2039706612
H 1.0516638461 2.1127947312 -1.1723362917
H 0.7342020674 3.2271879843 0.2208189768
C -1.4279392448 5.7277290000 -2.1717893385
N -2.2269229325 5.0388677354 -3.1666283842
C -2.3081879075 6.7925363379 -1.4878178195
C -0.2363682660 6.4267374273 -2.9459202552
O 0.6837221304 6.8369702751 -1.9519377514
O 0.3966533318 5.5188888962 -3.8439359129
C -0.6837056946 7.5968396767 -3.8212388678
H -1.6984920572 4.3373197680 -3.6745072221
H -3.1038319831 4.6699992234 -2.8077186400
H -1.7429436725 7.3659740486 -0.7474854000
H -2.7022515447 7.4776120858 -2.2383988314
H -3.1728762199 6.3367286725 -0.9957186896
H 1.3347326267 7.4238304396 -2.3720790036
H 0.9865910173 4.9196416704 -3.3499840942
H -1.5028514029 7.2949005505 -4.4769587144
H -0.9960444224 8.4499205956 -3.2161660825
H 0.1629079067 7.9006207714 -4.4457511942
O 1.3770369643 -0.3171279267 -0.2926724186
C 2.2070711426 -0.3185987948 0.9382143305
O 2.9419123764 -1.4704008253 1.0114397543
C 4.0151555915 -1.5113127651 0.0310979414
C 3.4458476492 -1.0289804040 -1.2789922324
C 2.2166499039 -0.5261305675 -1.4048127562
H 4.8113053980 -0.8411538981 0.3788562525
H 1.7559686794 -0.2032400161 -2.3282732311
H 4.0600020514 -1.0778265399 -2.1717124071
H 1.5076822290 -0.2889119785 1.7645189372
H 2.8257411361 0.5847269316 0.8682289615
C 4.6141530552 -2.9667479095 -0.0374948899
N 3.7080165316 -3.9721017565 -0.5706294502
C 5.8629474224 -2.8887667440 -0.9370374313
C 5.0049819510 -3.4591623438 1.4091472381
O 5.6383357426 -2.3632128677 2.0338222262
O 3.8301645662 -3.8194074992 2.1426431889
C 5.8918987561 -4.7031608618 1.4024139290
H 2.9329356323 -4.1352523380 0.0650139210
H 3.3735467105 -3.7434051990 -1.5019698622
H 6.6327067632 -2.2509761335 -0.4933288629
H 6.2719038254 -3.8885617318 -1.0889935280
H 5.6217609148 -2.4947043702 -1.9301082627
H 6.1001306715 -2.6894429344 2.8242164346
H 3.5538116113 -3.0433091563 2.6663357207
H 5.4324310101 -5.4994119936 0.8128557609
H 6.8829939676 -4.4849070224 0.9996162121
H 5.9970903792 -5.0536737545 2.4345063994
O -0.9067908850 -2.5805295583 -0.2936655752
C 0.3166385212 -3.4184999087 -0.2270871702
O 0.3601786027 -4.1108772961 0.9524963920
C -0.6295984743 -5.1750130326 1.0071201742
C -1.9313704148 -4.6005318366 0.5049662208
C -2.0328075276 -3.3922704034 -0.0506621337
H -0.2851996147 -5.9851171303 0.3521775841
H -2.9469231772 -2.9200463181 -0.3843521992
H -2.8370698053 -5.1918837005 0.5820064201
H 1.1476686562 -2.7236825553 -0.2654279192
H 0.2662195353 -4.0735547102 -1.1063088714
C -0.7071492527 -5.7513798705 2.4718531073
N -1.1931296578 -4.8163312760 3.4726747497
C -1.6530216247 -6.9668742550 2.4197780212
C 0.7278005630 -6.1971401771 2.9533212726
O 1.3148894128 -6.8725700488 1.8617424096
O 1.5156617319 -5.0499258833 3.2851161874
C 0.7003933369 -7.0630955859 4.2117929673
H -0.5462693287 -4.0468251051 3.6206120651
H -2.1304334099 -4.4785329537 3.2771622358
H -1.2538393368 -7.7520615321 1.7713945102
H -1.7924833503 -7.3706291378 3.4233587214
H -2.6477472719 -6.6908975363 2.0538745061
H 2.0853679823 -7.3668636671 2.1880751772
H 2.0457176484 -4.8038624461 2.5027378558
H 0.1334101621 -6.5705768805 5.0046647595
H 0.2617328946 -8.0430412278 4.0133442926
H 1.7312508938 -7.1987133301 4.5553204704
O -3.1803582715 -0.3806370675 -0.3213361425
C -4.0719073659 -0.0093713968 0.7872776893
O -4.7228913431 1.1633817477 0.4914874184
C -5.6904330543 1.0513343159 -0.6036105392
C -5.1420067555 0.0779398586 -1.6123440379
C -3.9576827603 -0.5204272438 -1.4887743140
H -6.6322286267 0.6909529388 -0.1749838423
H -3.5057678006 -1.1907658063 -2.2087337473
H -5.7336495048 -0.1439843046 -2.4935578876
H -3.4258020544 0.1418415892 1.6510658085
H -4.7540601729 -0.8565743947 0.9248817466
C -5.9467519408 2.4852029591 -1.2178609316
N -4.7829467445 3.0320437784 -1.9072574362
C -7.1055334757 2.3549232263 -2.2222029760
C -6.3349057335 3.4962837712 -0.0682178409
O -7.3028285176 2.8123970045 0.7009491889
O -5.1986303308 3.8000911734 0.7420948283
C -6.8440420448 4.8416994674 -0.5748315788
H -3.9814004902 3.0680175182 -1.2854927797
H -4.5470822781 2.4648112833 -2.7181933422
H -8.0307293096 2.0568522359 -1.7228451648
H -7.2660360141 3.3117025325 -2.7218619103
H -6.8869581499 1.6236102143 -3.0083551102
H -7.7152013388 3.4508373296 1.3068905150
H -5.0345341456 2.9940778525 1.2589256393
H -6.1323217655 5.2855623885 -1.2738331479
H -7.8148770262 4.7410647270 -1.0637248431
H -6.9489114942 5.5132864611 0.2836265073
O -0.9085195686 -0.2334603935 1.9494647911
C -0.9418615288 -1.4528232988 2.7996803658
O 0.2071928112 -1.5471945883 3.5305814381
C 0.2651338580 -0.5590140028 4.5940233392
C -0.1413843460 0.7641917056 3.9948717707
C -0.6328416261 0.8878745998 2.7616435753
H -0.4416229071 -0.8706584057 5.3732795735
H -0.8932082341 1.8148831091 2.2692417617
H -0.0348661889 1.6702223852 4.5813813354
H -0.9995717029 -2.2899914247 2.1129061593
H -1.8418774283 -1.3450682637 3.4188301515
C 1.7002404849 -0.5417525065 5.2424220997
N 2.7593009222 -0.0382762331 4.3836637164
C 1.6010651501 0.3578662842 6.4902096265
C 2.1218070329 -2.0056798438 5.6531370210
O 0.9601661666 -2.6165775558 6.1793488540
O 2.5634180104 -2.7133483327 4.4918511836
C 3.2779981141 -2.0453153478 6.6527310361
H 2.9256078451 -0.6558826476 3.5953858556
H 2.5983903191 0.9152986931 4.0737909561
H 0.9315094342 -0.0749384152 7.2391574614
H 2.5906884177 0.4900423598 6.9296153639
H 1.2319510349 1.3586675413 6.2416395790
H 1.2324595925 -3.3422116226 6.7647407408
H 1.9194569267 -3.4249831376 4.3038119404
H 4.1357614807 -1.4945247334 6.2607799855
H 2.9981885701 -1.6310144224 7.6241618183
H 3.5778193983 -3.0909028331 6.7840256248
O -0.9852445503 -0.2819333005 -2.5490236912
C -1.4437839449 0.9399063268 -3.2311062988
O -0.3797751369 1.5214422944 -3.8601287887
C 0.0716279510 0.7841967018 -5.0339849731
C 0.0183798104 -0.6843020140 -4.6884440231
C -0.4233958078 -1.1435642832 -3.5150953133
H -0.6233194795 1.0240186152 -5.8468150881
H -0.4500681609 -2.1778145843 -3.1944393630
H 0.3579457017 -1.4079159603 -5.4231825054
H -1.8088509934 1.6121830806 -2.4622995989
H -2.2318697087 0.6215258627 -3.9236614640
C 1.5145003169 1.2698089606 -5.4817895512
N 2.6229975041 0.6805047542 -4.7446573958
C 1.6486071108 0.8896863891 -6.9676478398
C 1.6361936826 2.8285998326 -5.2733194469
O 0.4435127066 3.3803659155 -5.7732820618
O 1.7611982207 3.0896889032 -3.8620010170
C 2.8702765985 3.4510368481 -5.9173523040
H 2.6954186473 1.0693770994 -3.8103199309
H 2.6084215161 -0.3338718856 -4.7297205633
H 0.9557887971 1.4647880925 -7.5877719558
H 2.6703324632 1.0777326612 -7.3013217784
H 1.4476746278 -0.1770368119 -7.1305290051
H 0.4168873823 4.3219332640 -5.5085847975
H 0.8907047565 2.8523061923 -3.4951892261
H 3.7852814359 2.9629835102 -5.5750614892
H 2.8115329428 3.3899367647 -7.0056261916
H 2.9060491653 4.5075874347 -5.6328565530
